MODEL 1
REMARK VINA RESULT:      -5.8      0.000      0.000
REMARK  3 active torsions:
REMARK  status: ('A' for Active; 'I' for Inactive)
REMARK    1  A    between atoms: C1_1  and  N8_13 
REMARK       I    between atoms: C20_8  and  N3_6 
REMARK    2  A    between atoms: C20_8  and  C22_9 
REMARK    3  A    between atoms: C10_15  and  N8_13 
ROOT
HETATM    1  C22 MI1 A   1      -9.476  15.161 -14.472  1.00 22.56     0.226 C 
HETATM    2  C23 MI1 A   1      -8.563  15.191 -15.625  1.00 31.52     0.068 C 
HETATM    3  N24 MI1 A   1      -7.810  15.250 -16.506  1.00 35.08    -0.197 NA
ENDROOT
BRANCH   1   4
HETATM    4  C20 MI1 A   1     -10.712  14.381 -14.865  1.00 24.41     0.232 C 
HETATM    5  N3  MI1 A   1     -11.725  14.383 -14.024  1.00 18.87    -0.349 N 
HETATM    6  C2  MI1 A   1     -12.959  13.643 -14.338  1.00  8.71     0.151 C 
HETATM    7  C4  MI1 A   1     -11.699  15.189 -12.776  1.00 14.86     0.126 C 
HETATM    8  C1  MI1 A   1     -13.038  12.529 -13.314  1.00 20.59     0.107 C 
HETATM    9  C6  MI1 A   1     -13.168  13.262 -11.928  1.00 25.70     0.007 C 
HETATM   10  C5  MI1 A   1     -11.980  14.203 -11.635  1.00 21.94     0.026 C 
HETATM   11  C7  MI1 A   1     -14.466  14.047 -11.616  1.00 22.23     0.012 C 
HETATM   12  O21 MI1 A   1     -10.734  13.750 -15.916  1.00 30.30    -0.272 OA
BRANCH   8  13
HETATM   13  N8  MI1 A   1     -14.253  11.654 -13.507  1.00 17.50    -0.363 N 
HETATM   14  C9  MI1 A   1     -15.288  11.948 -14.502  1.00 17.48     0.152 C 
BRANCH  13  15
HETATM   15  C10 MI1 A   1     -14.482  10.518 -12.756  1.00 19.09     0.141 A 
HETATM   16  C15 MI1 A   1     -13.658   9.380 -12.832  1.00 15.01     0.057 A 
HETATM   17  C14 MI1 A   1     -13.957   8.311 -12.008  1.00 15.66     0.142 A 
HETATM   18  C16 MI1 A   1     -12.496   9.036 -13.635  1.00 14.01     0.036 A 
HETATM   19  N12 MI1 A   1     -13.062   7.336 -12.250  1.00 10.67    -0.350 N 
HETATM   20  N17 MI1 A   1     -14.970   8.276 -11.125  1.00 12.18    -0.223 NA
HETATM   21  C11 MI1 A   1     -12.172   7.763 -13.211  1.00 14.51     0.091 A 
HETATM   22  H12 MI1 A   1     -13.047   6.432 -11.800  1.00  0.00     0.166 HD
HETATM   23  C18 MI1 A   1     -15.733   9.402 -11.082  1.00 23.17     0.237 A 
HETATM   24  N19 MI1 A   1     -15.533  10.503 -11.865  1.00 11.43    -0.224 NA
ENDBRANCH  13  15
ENDBRANCH   8  13
ENDBRANCH   1   4
TORSDOF 3
ENDMDL
MODEL 2
REMARK VINA RESULT:      -5.6      1.438      2.328
REMARK  3 active torsions:
REMARK  status: ('A' for Active; 'I' for Inactive)
REMARK    1  A    between atoms: C1_1  and  N8_13 
REMARK       I    between atoms: C20_8  and  N3_6 
REMARK    2  A    between atoms: C20_8  and  C22_9 
REMARK    3  A    between atoms: C10_15  and  N8_13 
ROOT
HETATM    1  C22 MI1 A   1      -9.747  15.023 -13.883  1.00 22.56     0.226 C 
HETATM    2  C23 MI1 A   1      -8.894  15.566 -14.951  1.00 31.52     0.068 C 
HETATM    3  N24 MI1 A   1      -8.196  16.026 -15.756  1.00 35.08    -0.197 NA
ENDROOT
BRANCH   1   4
HETATM    4  C20 MI1 A   1     -10.793  14.131 -14.517  1.00 24.41     0.232 C 
HETATM    5  N3  MI1 A   1     -11.748  13.667 -13.739  1.00 18.87    -0.349 N 
HETATM    6  C2  MI1 A   1     -12.798  12.791 -14.287  1.00  8.71     0.151 C 
HETATM    7  C4  MI1 A   1     -11.855  14.069 -12.313  1.00 14.86     0.126 C 
HETATM    8  C1  MI1 A   1     -12.589  11.443 -13.626  1.00 20.59     0.107 C 
HETATM    9  C6  MI1 A   1     -12.827  11.703 -12.093  1.00 25.70     0.007 C 
HETATM   10  C5  MI1 A   1     -11.867  12.762 -11.509  1.00 21.94     0.026 C 
HETATM   11  C7  MI1 A   1     -14.254  12.056 -11.607  1.00 22.23     0.012 C 
HETATM   12  O21 MI1 A   1     -10.714  13.837 -15.704  1.00 30.30    -0.272 OA
BRANCH   8  13
HETATM   13  N8  MI1 A   1     -13.585  10.410 -14.095  1.00 17.50    -0.363 N 
HETATM   14  C9  MI1 A   1     -14.952  10.757 -14.497  1.00 17.48     0.152 C 
BRANCH  13  15
HETATM   15  C10 MI1 A   1     -13.287   9.065 -14.171  1.00 19.09     0.141 A 
HETATM   16  C15 MI1 A   1     -13.550   8.170 -13.118  1.00 15.01     0.057 A 
HETATM   17  C14 MI1 A   1     -13.246   6.835 -13.313  1.00 15.66     0.142 A 
HETATM   18  C16 MI1 A   1     -14.091   8.331 -11.777  1.00 14.01     0.036 A 
HETATM   19  N12 MI1 A   1     -13.560   6.167 -12.188  1.00 10.67    -0.350 N 
HETATM   20  N17 MI1 A   1     -12.728   6.319 -14.441  1.00 12.18    -0.223 NA
HETATM   21  C11 MI1 A   1     -14.082   7.047 -11.266  1.00 14.51     0.091 A 
HETATM   22  H12 MI1 A   1     -13.431   5.176 -12.042  1.00  0.00     0.166 HD
HETATM   23  C18 MI1 A   1     -12.500   7.222 -15.434  1.00 23.17     0.237 A 
HETATM   24  N19 MI1 A   1     -12.747   8.560 -15.334  1.00 11.43    -0.224 NA
ENDBRANCH  13  15
ENDBRANCH   8  13
ENDBRANCH   1   4
TORSDOF 3
ENDMDL
MODEL 3
REMARK VINA RESULT:      -5.6      3.395      6.067
REMARK  3 active torsions:
REMARK  status: ('A' for Active; 'I' for Inactive)
REMARK    1  A    between atoms: C1_1  and  N8_13 
REMARK       I    between atoms: C20_8  and  N3_6 
REMARK    2  A    between atoms: C20_8  and  C22_9 
REMARK    3  A    between atoms: C10_15  and  N8_13 
ROOT
HETATM    1  C22 MI1 A   1     -17.021  13.358 -11.440  1.00 22.56     0.226 C 
HETATM    2  C23 MI1 A   1     -16.955  13.173  -9.982  1.00 31.52     0.068 C 
HETATM    3  N24 MI1 A   1     -16.958  13.026  -8.830  1.00 35.08    -0.197 NA
ENDROOT
BRANCH   1   4
HETATM    4  C20 MI1 A   1     -15.619  13.608 -11.951  1.00 24.41     0.232 C 
HETATM    5  N3  MI1 A   1     -15.066  12.671 -12.692  1.00 18.87    -0.349 N 
HETATM    6  C2  MI1 A   1     -13.702  12.846 -13.221  1.00  8.71     0.151 C 
HETATM    7  C4  MI1 A   1     -15.813  11.451 -13.090  1.00 14.86     0.126 C 
HETATM    8  C1  MI1 A   1     -12.859  11.793 -12.529  1.00 20.59     0.107 C 
HETATM    9  C6  MI1 A   1     -13.464  10.419 -12.996  1.00 25.70     0.007 C 
HETATM   10  C5  MI1 A   1     -14.956  10.266 -12.628  1.00 21.94     0.026 C 
HETATM   11  C7  MI1 A   1     -13.309   9.998 -14.478  1.00 22.23     0.012 C 
HETATM   12  O21 MI1 A   1     -15.026  14.637 -11.645  1.00 30.30    -0.272 OA
BRANCH   8  13
HETATM   13  N8  MI1 A   1     -11.411  11.845 -12.952  1.00 17.50    -0.363 N 
HETATM   14  C9  MI1 A   1     -10.942  12.673 -14.067  1.00 17.48     0.152 C 
BRANCH  13  15
HETATM   15  C10 MI1 A   1     -10.423  11.111 -12.326  1.00 19.09     0.141 A 
HETATM   16  C15 MI1 A   1      -9.899  11.462 -11.068  1.00 15.01     0.057 A 
HETATM   17  C14 MI1 A   1      -8.939  10.636 -10.515  1.00 15.66     0.142 A 
HETATM   18  C16 MI1 A   1     -10.138  12.571 -10.157  1.00 14.01     0.036 A 
HETATM   19  N12 MI1 A   1      -8.570  11.160  -9.332  1.00 10.67    -0.350 N 
HETATM   20  N17 MI1 A   1      -8.472   9.509 -11.080  1.00 12.18    -0.223 NA
HETATM   21  C11 MI1 A   1      -9.292  12.310  -9.098  1.00 14.51     0.091 A 
HETATM   22  H12 MI1 A   1      -7.872  10.772  -8.713  1.00  0.00     0.166 HD
HETATM   23  C18 MI1 A   1      -9.014   9.207 -12.291  1.00 23.17     0.237 A 
HETATM   24  N19 MI1 A   1      -9.953   9.965 -12.930  1.00 11.43    -0.224 NA
ENDBRANCH  13  15
ENDBRANCH   8  13
ENDBRANCH   1   4
TORSDOF 3
ENDMDL
MODEL 4
REMARK VINA RESULT:      -5.6      3.428      6.386
REMARK  3 active torsions:
REMARK  status: ('A' for Active; 'I' for Inactive)
REMARK    1  A    between atoms: C1_1  and  N8_13 
REMARK       I    between atoms: C20_8  and  N3_6 
REMARK    2  A    between atoms: C20_8  and  C22_9 
REMARK    3  A    between atoms: C10_15  and  N8_13 
ROOT
HETATM    1  C22 MI1 A   1     -16.747  10.071 -11.071  1.00 22.56     0.226 C 
HETATM    2  C23 MI1 A   1     -17.141  10.149  -9.656  1.00 31.52     0.068 C 
HETATM    3  N24 MI1 A   1     -17.504  10.216  -8.556  1.00 35.08    -0.197 NA
ENDROOT
BRANCH   1   4
HETATM    4  C20 MI1 A   1     -15.235  10.088 -11.146  1.00 24.41     0.232 C 
HETATM    5  N3  MI1 A   1     -14.646  11.259 -11.252  1.00 18.87    -0.349 N 
HETATM    6  C2  MI1 A   1     -13.178  11.352 -11.334  1.00  8.71     0.151 C 
HETATM    7  C4  MI1 A   1     -15.419  12.527 -11.211  1.00 14.86     0.126 C 
HETATM    8  C1  MI1 A   1     -12.879  11.877 -12.724  1.00 20.59     0.107 C 
HETATM    9  C6  MI1 A   1     -13.529  13.309 -12.763  1.00 25.70     0.007 C 
HETATM   10  C5  MI1 A   1     -15.048  13.285 -12.493  1.00 21.94     0.026 C 
HETATM   11  C7  MI1 A   1     -12.922  14.430 -11.883  1.00 22.23     0.012 C 
HETATM   12  O21 MI1 A   1     -14.607   9.035 -11.142  1.00 30.30    -0.272 OA
BRANCH   8  13
HETATM   13  N8  MI1 A   1     -11.398  12.018 -12.981  1.00 17.50    -0.363 N 
HETATM   14  C9  MI1 A   1     -10.850  13.004 -13.917  1.00 17.48     0.152 C 
BRANCH  13  15
HETATM   15  C10 MI1 A   1     -10.454  11.224 -12.363  1.00 19.09     0.141 A 
HETATM   16  C15 MI1 A   1      -9.900  11.541 -11.109  1.00 15.01     0.057 A 
HETATM   17  C14 MI1 A   1      -8.989  10.656 -10.563  1.00 15.66     0.142 A 
HETATM   18  C16 MI1 A   1     -10.063  12.662 -10.196  1.00 14.01     0.036 A 
HETATM   19  N12 MI1 A   1      -8.580  11.156  -9.382  1.00 10.67    -0.350 N 
HETATM   20  N17 MI1 A   1      -8.597   9.503 -11.131  1.00 12.18    -0.223 NA
HETATM   21  C11 MI1 A   1      -9.227  12.348  -9.143  1.00 14.51     0.091 A 
HETATM   22  H12 MI1 A   1      -7.903  10.725  -8.768  1.00  0.00     0.166 HD
HETATM   23  C18 MI1 A   1      -9.166   9.236 -12.338  1.00 23.17     0.237 A 
HETATM   24  N19 MI1 A   1     -10.060  10.051 -12.970  1.00 11.43    -0.224 NA
ENDBRANCH  13  15
ENDBRANCH   8  13
ENDBRANCH   1   4
TORSDOF 3
ENDMDL
MODEL 5
REMARK VINA RESULT:      -5.5      1.698      2.688
REMARK  3 active torsions:
REMARK  status: ('A' for Active; 'I' for Inactive)
REMARK    1  A    between atoms: C1_1  and  N8_13 
REMARK       I    between atoms: C20_8  and  N3_6 
REMARK    2  A    between atoms: C20_8  and  C22_9 
REMARK    3  A    between atoms: C10_15  and  N8_13 
ROOT
HETATM    1  C22 MI1 A   1      -9.880  15.024 -14.024  1.00 22.56     0.226 C 
HETATM    2  C23 MI1 A   1      -8.988  15.136 -15.188  1.00 31.52     0.068 C 
HETATM    3  N24 MI1 A   1      -8.272  15.278 -16.091  1.00 35.08    -0.197 NA
ENDROOT
BRANCH   1   4
HETATM    4  C20 MI1 A   1     -10.632  13.715 -14.126  1.00 24.41     0.232 C 
HETATM    5  N3  MI1 A   1     -11.894  13.709 -13.752  1.00 18.87    -0.349 N 
HETATM    6  C2  MI1 A   1     -12.687  12.469 -13.821  1.00  8.71     0.151 C 
HETATM    7  C4  MI1 A   1     -12.587  14.953 -13.330  1.00 14.86     0.126 C 
HETATM    8  C1  MI1 A   1     -13.005  12.109 -12.384  1.00 20.59     0.107 C 
HETATM    9  C6  MI1 A   1     -13.882  13.301 -11.852  1.00 25.70     0.007 C 
HETATM   10  C5  MI1 A   1     -13.158  14.661 -11.937  1.00 21.94     0.026 C 
HETATM   11  C7  MI1 A   1     -15.305  13.499 -12.432  1.00 22.23     0.012 C 
HETATM   12  O21 MI1 A   1     -10.057  12.702 -14.511  1.00 30.30    -0.272 OA
BRANCH   8  13
HETATM   13  N8  MI1 A   1     -13.810  10.837 -12.273  1.00 17.50    -0.363 N 
HETATM   14  C9  MI1 A   1     -14.660  10.538 -11.116  1.00 17.48     0.152 C 
BRANCH  13  15
HETATM   15  C10 MI1 A   1     -13.799   9.858 -13.246  1.00 19.09     0.141 A 
HETATM   16  C15 MI1 A   1     -14.718   9.838 -14.311  1.00 15.01     0.057 A 
HETATM   17  C14 MI1 A   1     -14.594   8.833 -15.252  1.00 15.66     0.142 A 
HETATM   18  C16 MI1 A   1     -15.852  10.675 -14.672  1.00 14.01     0.036 A 
HETATM   19  N12 MI1 A   1     -15.572   8.992 -16.163  1.00 10.67    -0.350 N 
HETATM   20  N17 MI1 A   1     -13.652   7.875 -15.238  1.00 12.18    -0.223 NA
HETATM   21  C11 MI1 A   1     -16.322  10.101 -15.837  1.00 14.51     0.091 A 
HETATM   22  H12 MI1 A   1     -15.731   8.393 -16.960  1.00  0.00     0.166 HD
HETATM   23  C18 MI1 A   1     -12.781   7.941 -14.194  1.00 23.17     0.237 A 
HETATM   24  N19 MI1 A   1     -12.829   8.880 -13.205  1.00 11.43    -0.224 NA
ENDBRANCH  13  15
ENDBRANCH   8  13
ENDBRANCH   1   4
TORSDOF 3
ENDMDL
MODEL 6
REMARK VINA RESULT:      -5.4      3.224      4.049
REMARK  3 active torsions:
REMARK  status: ('A' for Active; 'I' for Inactive)
REMARK    1  A    between atoms: C1_1  and  N8_13 
REMARK       I    between atoms: C20_8  and  N3_6 
REMARK    2  A    between atoms: C20_8  and  C22_9 
REMARK    3  A    between atoms: C10_15  and  N8_13 
ROOT
HETATM    1  C22 MI1 A   1      -8.724   9.740 -11.712  1.00 22.56     0.226 C 
HETATM    2  C23 MI1 A   1      -8.076   8.440 -11.943  1.00 31.52     0.068 C 
HETATM    3  N24 MI1 A   1      -7.521   7.432 -12.095  1.00 35.08    -0.197 NA
ENDROOT
BRANCH   1   4
HETATM    4  C20 MI1 A   1      -9.966   9.813 -12.573  1.00 24.41     0.232 C 
HETATM    5  N3  MI1 A   1     -10.813  10.792 -12.338  1.00 18.87    -0.349 N 
HETATM    6  C2  MI1 A   1     -12.045  10.923 -13.135  1.00  8.71     0.151 C 
HETATM    7  C4  MI1 A   1     -10.526  11.843 -11.327  1.00 14.86     0.126 C 
HETATM    8  C1  MI1 A   1     -13.184  10.665 -12.169  1.00 20.59     0.107 C 
HETATM    9  C6  MI1 A   1     -13.084  11.821 -11.108  1.00 25.70     0.007 C 
HETATM   10  C5  MI1 A   1     -11.727  11.844 -10.372  1.00 21.94     0.026 C 
HETATM   11  C7  MI1 A   1     -13.392  13.273 -11.552  1.00 22.23     0.012 C 
HETATM   12  O21 MI1 A   1     -10.173   8.959 -13.429  1.00 30.30    -0.272 OA
BRANCH   8  13
HETATM   13  N8  MI1 A   1     -14.535  10.745 -12.836  1.00 17.50    -0.363 N 
HETATM   14  C9  MI1 A   1     -14.738  11.399 -14.133  1.00 17.48     0.152 C 
BRANCH  13  15
HETATM   15  C10 MI1 A   1     -15.680  10.218 -12.273  1.00 19.09     0.141 A 
HETATM   16  C15 MI1 A   1     -16.082   8.886 -12.480  1.00 15.01     0.057 A 
HETATM   17  C14 MI1 A   1     -17.226   8.449 -11.837  1.00 15.66     0.142 A 
HETATM   18  C16 MI1 A   1     -15.549   7.790 -13.275  1.00 14.01     0.036 A 
HETATM   19  N12 MI1 A   1     -17.433   7.165 -12.182  1.00 10.67    -0.350 N 
HETATM   20  N17 MI1 A   1     -17.982   9.196 -11.014  1.00 12.18    -0.223 NA
HETATM   21  C11 MI1 A   1     -16.428   6.753 -13.029  1.00 14.51     0.091 A 
HETATM   22  H12 MI1 A   1     -18.205   6.593 -11.871  1.00  0.00     0.166 HD
HETATM   23  C18 MI1 A   1     -17.548  10.474 -10.838  1.00 23.17     0.237 A 
HETATM   24  N19 MI1 A   1     -16.444  11.006 -11.441  1.00 11.43    -0.224 NA
ENDBRANCH  13  15
ENDBRANCH   8  13
ENDBRANCH   1   4
TORSDOF 3
ENDMDL
MODEL 7
REMARK VINA RESULT:      -5.4      3.377      4.787
REMARK  3 active torsions:
REMARK  status: ('A' for Active; 'I' for Inactive)
REMARK    1  A    between atoms: C1_1  and  N8_13 
REMARK       I    between atoms: C20_8  and  N3_6 
REMARK    2  A    between atoms: C20_8  and  C22_9 
REMARK    3  A    between atoms: C10_15  and  N8_13 
ROOT
HETATM    1  C22 MI1 A   1      -9.724  12.311  -9.108  1.00 22.56     0.226 C 
HETATM    2  C23 MI1 A   1      -9.854  11.414  -7.949  1.00 31.52     0.068 C 
HETATM    3  N24 MI1 A   1      -9.950  10.752  -7.002  1.00 35.08    -0.197 NA
ENDROOT
BRANCH   1   4
HETATM    4  C20 MI1 A   1      -9.663  11.464 -10.361  1.00 24.41     0.232 C 
HETATM    5  N3  MI1 A   1     -10.517  11.739 -11.324  1.00 18.87    -0.349 N 
HETATM    6  C2  MI1 A   1     -10.517  10.953 -12.569  1.00  8.71     0.151 C 
HETATM    7  C4  MI1 A   1     -11.449  12.892 -11.231  1.00 14.86     0.126 C 
HETATM    8  C1  MI1 A   1     -11.839  10.213 -12.584  1.00 20.59     0.107 C 
HETATM    9  C6  MI1 A   1     -12.933  11.341 -12.640  1.00 25.70     0.007 C 
HETATM   10  C5  MI1 A   1     -12.854  12.312 -11.442  1.00 21.94     0.026 C 
HETATM   11  C7  MI1 A   1     -13.058  12.200 -13.922  1.00 22.23     0.012 C 
HETATM   12  O21 MI1 A   1      -8.863  10.537 -10.439  1.00 30.30    -0.272 OA
BRANCH   8  13
HETATM   13  N8  MI1 A   1     -11.996   9.336 -13.803  1.00 17.50    -0.363 N 
HETATM   14  C9  MI1 A   1     -11.303   9.609 -15.066  1.00 17.48     0.152 C 
BRANCH  13  15
HETATM   15  C10 MI1 A   1     -12.808   8.220 -13.821  1.00 19.09     0.141 A 
HETATM   16  C15 MI1 A   1     -14.085   8.222 -14.411  1.00 15.01     0.057 A 
HETATM   17  C14 MI1 A   1     -14.800   7.038 -14.407  1.00 15.66     0.142 A 
HETATM   18  C16 MI1 A   1     -14.890   9.248 -15.056  1.00 14.01     0.036 A 
HETATM   19  N12 MI1 A   1     -15.985   7.266 -15.001  1.00 10.67    -0.350 N 
HETATM   20  N17 MI1 A   1     -14.364   5.875 -13.894  1.00 12.18    -0.223 NA
HETATM   21  C11 MI1 A   1     -16.046   8.580 -15.409  1.00 14.51     0.091 A 
HETATM   22  H12 MI1 A   1     -16.717   6.581 -15.127  1.00  0.00     0.166 HD
HETATM   23  C18 MI1 A   1     -13.120   5.921 -13.343  1.00 23.17     0.237 A 
HETATM   24  N19 MI1 A   1     -12.342   7.041 -13.280  1.00 11.43    -0.224 NA
ENDBRANCH  13  15
ENDBRANCH   8  13
ENDBRANCH   1   4
TORSDOF 3
ENDMDL
MODEL 8
REMARK VINA RESULT:      -5.4      3.151      4.390
REMARK  3 active torsions:
REMARK  status: ('A' for Active; 'I' for Inactive)
REMARK    1  A    between atoms: C1_1  and  N8_13 
REMARK       I    between atoms: C20_8  and  N3_6 
REMARK    2  A    between atoms: C20_8  and  C22_9 
REMARK    3  A    between atoms: C10_15  and  N8_13 
ROOT
HETATM    1  C22 MI1 A   1      -9.525  12.317  -9.314  1.00 22.56     0.226 C 
HETATM    2  C23 MI1 A   1      -9.763  11.485  -8.124  1.00 31.52     0.068 C 
HETATM    3  N24 MI1 A   1      -9.934  10.872  -7.153  1.00 35.08    -0.197 NA
ENDROOT
BRANCH   1   4
HETATM    4  C20 MI1 A   1      -9.679  11.445 -10.541  1.00 24.41     0.232 C 
HETATM    5  N3  MI1 A   1     -10.541  11.834 -11.457  1.00 18.87    -0.349 N 
HETATM    6  C2  MI1 A   1     -10.746  11.033 -12.677  1.00  8.71     0.151 C 
HETATM    7  C4  MI1 A   1     -11.273  13.122 -11.342  1.00 14.86     0.126 C 
HETATM    8  C1  MI1 A   1     -12.167  10.512 -12.587  1.00 20.59     0.107 C 
HETATM    9  C6  MI1 A   1     -13.071  11.798 -12.609  1.00 25.70     0.007 C 
HETATM   10  C5  MI1 A   1     -12.762  12.767 -11.448  1.00 21.94     0.026 C 
HETATM   11  C7  MI1 A   1     -13.144  12.640 -13.906  1.00 22.23     0.012 C 
HETATM   12  O21 MI1 A   1      -9.042  10.403 -10.641  1.00 30.30    -0.272 OA
BRANCH   8  13
HETATM   13  N8  MI1 A   1     -12.539   9.647 -13.767  1.00 17.50    -0.363 N 
HETATM   14  C9  MI1 A   1     -11.608   9.366 -14.865  1.00 17.48     0.152 C 
BRANCH  13  15
HETATM   15  C10 MI1 A   1     -13.783   9.065 -13.904  1.00 19.09     0.141 A 
HETATM   16  C15 MI1 A   1     -14.224   8.016 -13.077  1.00 15.01     0.057 A 
HETATM   17  C14 MI1 A   1     -15.503   7.531 -13.276  1.00 15.66     0.142 A 
HETATM   18  C16 MI1 A   1     -13.605   7.262 -11.998  1.00 14.01     0.036 A 
HETATM   19  N12 MI1 A   1     -15.712   6.533 -12.398  1.00 10.67    -0.350 N 
HETATM   20  N17 MI1 A   1     -16.370   7.993 -14.194  1.00 12.18    -0.223 NA
HETATM   21  C11 MI1 A   1     -14.589   6.372 -11.616  1.00 14.51     0.091 A 
HETATM   22  H12 MI1 A   1     -16.558   5.986 -12.325  1.00  0.00     0.166 HD
HETATM   23  C18 MI1 A   1     -15.901   9.013 -14.963  1.00 23.17     0.237 A 
HETATM   24  N19 MI1 A   1     -14.650   9.550 -14.859  1.00 11.43    -0.224 NA
ENDBRANCH  13  15
ENDBRANCH   8  13
ENDBRANCH   1   4
TORSDOF 3
ENDMDL
MODEL 9
REMARK VINA RESULT:      -5.3      3.159      4.600
REMARK  3 active torsions:
REMARK  status: ('A' for Active; 'I' for Inactive)
REMARK    1  A    between atoms: C1_1  and  N8_13 
REMARK       I    between atoms: C20_8  and  N3_6 
REMARK    2  A    between atoms: C20_8  and  C22_9 
REMARK    3  A    between atoms: C10_15  and  N8_13 
ROOT
HETATM    1  C22 MI1 A   1      -8.639   9.703 -11.702  1.00 22.56     0.226 C 
HETATM    2  C23 MI1 A   1      -8.004   8.399 -11.949  1.00 31.52     0.068 C 
HETATM    3  N24 MI1 A   1      -7.460   7.388 -12.114  1.00 35.08    -0.197 NA
ENDROOT
BRANCH   1   4
HETATM    4  C20 MI1 A   1      -9.911   9.775 -12.518  1.00 24.41     0.232 C 
HETATM    5  N3  MI1 A   1     -10.711  10.800 -12.308  1.00 18.87    -0.349 N 
HETATM    6  C2  MI1 A   1     -11.968  10.933 -13.063  1.00  8.71     0.151 C 
HETATM    7  C4  MI1 A   1     -10.344  11.894 -11.373  1.00 14.86     0.126 C 
HETATM    8  C1  MI1 A   1     -13.076  10.776 -12.041  1.00 20.59     0.107 C 
HETATM    9  C6  MI1 A   1     -12.890  11.986 -11.054  1.00 25.70     0.007 C 
HETATM   10  C5  MI1 A   1     -11.505  11.997 -10.374  1.00 21.94     0.026 C 
HETATM   11  C7  MI1 A   1     -13.162  13.421 -11.571  1.00 22.23     0.012 C 
HETATM   12  O21 MI1 A   1     -10.184   8.883 -13.314  1.00 30.30    -0.272 OA
BRANCH   8  13
HETATM   13  N8  MI1 A   1     -14.450  10.871 -12.660  1.00 17.50    -0.363 N 
HETATM   14  C9  MI1 A   1     -14.711  11.623 -13.890  1.00 17.48     0.152 C 
BRANCH  13  15
HETATM   15  C10 MI1 A   1     -15.561  10.265 -12.109  1.00 19.09     0.141 A 
HETATM   16  C15 MI1 A   1     -16.450  10.944 -11.255  1.00 15.01     0.057 A 
HETATM   17  C14 MI1 A   1     -17.553  10.254 -10.789  1.00 15.66     0.142 A 
HETATM   18  C16 MI1 A   1     -16.476  12.289 -10.701  1.00 14.01     0.036 A 
HETATM   19  N12 MI1 A   1     -18.252  11.077  -9.987  1.00 10.67    -0.350 N 
HETATM   20  N17 MI1 A   1     -17.853   8.980 -11.099  1.00 12.18    -0.223 NA
HETATM   21  C11 MI1 A   1     -17.627  12.304  -9.938  1.00 14.51     0.091 A 
HETATM   22  H12 MI1 A   1     -19.101  10.834  -9.497  1.00  0.00     0.166 HD
HETATM   23  C18 MI1 A   1     -16.970   8.369 -11.934  1.00 23.17     0.237 A 
HETATM   24  N19 MI1 A   1     -15.843   8.956 -12.433  1.00 11.43    -0.224 NA
ENDBRANCH  13  15
ENDBRANCH   8  13
ENDBRANCH   1   4
TORSDOF 3
ENDMDL
