REMARK  3 active torsions:
REMARK  status: ('A' for Active; 'I' for Inactive)
REMARK    1  A    between atoms: C1_1  and  N8_13 
REMARK       I    between atoms: C20_8  and  N3_6 
REMARK    2  A    between atoms: C20_8  and  C22_9 
REMARK    3  A    between atoms: C10_15  and  N8_13 
ROOT
HETATM    1  C22 MI1 A   1     -11.059  23.400  -4.658  1.00 22.56     0.226 C 
HETATM    2  C23 MI1 A   1     -11.560  24.362  -3.664  1.00 31.52     0.068 C 
HETATM    3  N24 MI1 A   1     -11.997  25.133  -2.915  1.00 35.08    -0.197 NA
ENDROOT
BRANCH   1   4
HETATM    4  C20 MI1 A   1      -9.715  22.887  -4.188  1.00 24.41     0.232 C 
HETATM    5  N3  MI1 A   1      -9.168  21.903  -4.870  1.00 18.87    -0.349 N 
HETATM    6  C2  MI1 A   1      -7.863  21.351  -4.468  1.00  8.71     0.151 C 
HETATM    7  C4  MI1 A   1      -9.795  21.370  -6.107  1.00 14.86     0.126 C 
HETATM    8  C1  MI1 A   1      -8.142  19.930  -4.020  1.00 20.59     0.107 C 
HETATM    9  C6  MI1 A   1      -8.682  19.200  -5.304  1.00 25.70     0.007 C 
HETATM   10  C5  MI1 A   1      -9.953  19.861  -5.879  1.00 21.94     0.026 C 
HETATM   11  C7  MI1 A   1      -7.714  18.955  -6.488  1.00 22.23     0.012 C 
HETATM   12  O21 MI1 A   1      -9.191  23.361  -3.186  1.00 30.30    -0.272 OA
BRANCH   8  13
HETATM   13  N8  MI1 A   1      -6.896  19.217  -3.554  1.00 17.50    -0.363 N 
HETATM   14  C9  MI1 A   1      -5.547  19.692  -3.876  1.00 17.48     0.152 C 
BRANCH  13  15
HETATM   15  C10 MI1 A   1      -6.934  18.062  -2.799  1.00 19.09     0.141 A 
HETATM   16  C15 MI1 A   1      -8.140  17.453  -2.406  1.00 15.01     0.057 A 
HETATM   17  C14 MI1 A   1      -8.064  16.277  -1.683  1.00 15.66     0.142 A 
HETATM   18  C16 MI1 A   1      -9.542  17.799  -2.583  1.00 14.01     0.036 A 
HETATM   19  N12 MI1 A   1      -9.318  15.879  -1.402  1.00 10.67    -0.350 N 
HETATM   20  N17 MI1 A   1      -6.923  15.658  -1.334  1.00 12.18    -0.223 NA
HETATM   21  C11 MI1 A   1     -10.213  16.772  -1.949  1.00 14.51     0.091 A 
HETATM   22  H12 MI1 A   1      -9.565  15.055  -0.872  1.00  0.00     0.166 HD
HETATM   23  C18 MI1 A   1      -5.784  16.280  -1.744  1.00 23.17     0.237 A 
HETATM   24  N19 MI1 A   1      -5.751  17.451  -2.445  1.00 11.43    -0.224 NA
ENDBRANCH  13  15
ENDBRANCH   8  13
ENDBRANCH   1   4
TORSDOF 3
