@<TRIPOS>MOLECULE
mol_CHEMBL4085457_0
 52 55 0 0 0
SMALL
GASTEIGER

@<TRIPOS>ATOM
      1 C           1.0761    0.3987    0.0591 C.3     1  UNL1       -0.0241
      2 C           2.5454    0.1746    0.0657 C.ar    1  UNL1        0.0182
      3 N           3.4358    1.2156    0.1007 N.ar    1  UNL1       -0.3428
      4 C           4.7144    0.7406    0.0915 C.ar    1  UNL1        0.1443
      5 N           5.7969    1.5275    0.1281 N.ar    1  UNL1       -0.2097
      6 C           6.9356    0.8142    0.0642 C.ar    1  UNL1        0.1640
      7 C           8.1891    1.5787    0.0779 C.ar    1  UNL1        0.0192
      8 C           8.4398    2.5405    1.0725 C.ar    1  UNL1       -0.0510
      9 C           9.6373    3.2607    1.0943 C.ar    1  UNL1       -0.0611
     10 C          10.5983    3.0433    0.1095 C.ar    1  UNL1       -0.0617
     11 C          10.3662    2.1034   -0.8924 C.ar    1  UNL1       -0.0611
     12 C           9.1751    1.3722   -0.9025 C.ar    1  UNL1       -0.0510
     13 N           7.0480   -0.5299   -0.0055 N.ar    1  UNL1       -0.2121
     14 C           5.9296   -1.2945    0.0020 C.ar    1  UNL1        0.1321
     15 N           6.0520   -2.6603   -0.0266 N.pl3   1  UNL1       -0.3284
     16 C           7.3232   -3.3486    0.0015 C.3     1  UNL1        0.0119
     17 C           7.0242   -4.8473   -0.0226 C.3     1  UNL1       -0.0215
     18 C           8.2699   -5.7190   -0.0126 C.3     1  UNL1        0.0161
     19 N           8.0146   -7.1597    0.0327 N.am    1  UNL1       -0.3014
     20 C           9.0924   -8.0879    0.2741 C.3     1  UNL1        0.0151
     21 C           8.5299   -9.4219   -0.1725 C.3     1  UNL1       -0.0289
     22 C           7.0405   -9.2906    0.0965 C.3     1  UNL1        0.0256
     23 C           6.7940   -7.8159   -0.0949 C.2     1  UNL1        0.2156
     24 O           5.6883   -7.3277   -0.2745 O.2     1  UNL1       -0.2756
     25 C           4.6742   -0.6448    0.0368 C.ar    1  UNL1        0.0615
     26 C           3.2754   -1.0099    0.0407 C.ar    1  UNL1       -0.0176
     27 C           2.6461   -2.3610    0.0148 C.3     1  UNL1       -0.0373
     28 H           0.8278    1.4645    0.0567 H       1  UNL1        0.0292
     29 H           0.6191   -0.0559    0.9438 H       1  UNL1        0.0292
     30 H           0.6278   -0.0554   -0.8308 H       1  UNL1        0.0292
     31 H           3.2085    2.1987    0.1241 H       1  UNL1        0.1670
     32 H           7.6963    2.7202    1.8471 H       1  UNL1        0.0625
     33 H           9.8172    3.9892    1.8804 H       1  UNL1        0.0618
     34 H          11.5277    3.6064    0.1228 H       1  UNL1        0.0618
     35 H          11.1107    1.9372   -1.6664 H       1  UNL1        0.0618
     36 H           9.0052    0.6395   -1.6897 H       1  UNL1        0.0625
     37 H           5.2152   -3.2166   -0.0211 H       1  UNL1        0.1475
     38 H           7.8794   -3.0919    0.9107 H       1  UNL1        0.0462
     39 H           7.9300   -3.0717   -0.8681 H       1  UNL1        0.0462
     40 H           6.4325   -5.0671   -0.9204 H       1  UNL1        0.0295
     41 H           6.3968   -5.0967    0.8435 H       1  UNL1        0.0295
     42 H           8.8832   -5.4760    0.8630 H       1  UNL1        0.0465
     43 H           8.8749   -5.5281   -0.9061 H       1  UNL1        0.0465
     44 H           9.3206   -8.0789    1.3449 H       1  UNL1        0.0465
     45 H           9.9810   -7.8067   -0.2981 H       1  UNL1        0.0465
     46 H           8.9834  -10.2717    0.3448 H       1  UNL1        0.0285
     47 H           8.6953   -9.5540   -1.2491 H       1  UNL1        0.0285
     48 H           6.7894   -9.5582    1.1276 H       1  UNL1        0.0359
     49 H           6.4437   -9.8823   -0.6019 H       1  UNL1        0.0359
     50 H           3.3570   -3.1832    0.0235 H       1  UNL1        0.0278
     51 H           2.0300   -2.4718   -0.8838 H       1  UNL1        0.0278
     52 H           1.9987   -2.4883    0.8894 H       1  UNL1        0.0278
@<TRIPOS>BOND
     1     1     2    1
     2     2     3   ar
     3     3     4   ar
     4     4     5   ar
     5     5     6   ar
     6     6     7    1
     7     7     8   ar
     8     8     9   ar
     9     9    10   ar
    10    10    11   ar
    11    11    12   ar
    12     7    12   ar
    13     6    13   ar
    14    13    14   ar
    15    14    15    1
    16    15    16    1
    17    16    17    1
    18    17    18    1
    19    18    19    1
    20    19    20    1
    21    20    21    1
    22    21    22    1
    23    22    23    1
    24    19    23   am
    25    23    24    2
    26    14    25   ar
    27     4    25   ar
    28    25    26   ar
    29     2    26   ar
    30    26    27    1
    31     1    28    1
    32     1    29    1
    33     1    30    1
    34     3    31    1
    35     8    32    1
    36     9    33    1
    37    10    34    1
    38    11    35    1
    39    12    36    1
    40    15    37    1
    41    16    38    1
    42    16    39    1
    43    17    40    1
    44    17    41    1
    45    18    42    1
    46    18    43    1
    47    20    44    1
    48    20    45    1
    49    21    46    1
    50    21    47    1
    51    22    48    1
    52    22    49    1
    53    27    50    1
    54    27    51    1
    55    27    52    1
@<TRIPOS>MOLECULE
mol_CHEMBL78377_1
 52 55 0 0 0
SMALL
GASTEIGER

@<TRIPOS>ATOM
      1 C           1.4298   -0.1747    0.4674 C.3     1  UNL1       -0.0241
      2 C           0.8711   -1.2983   -0.3310 C.ar    1  UNL1        0.0182
      3 N           1.1700   -2.5924   -0.0215 N.ar    1  UNL1       -0.3428
      4 C           0.5611   -3.4379   -0.8959 C.ar    1  UNL1        0.1443
      5 N           0.7065   -4.7667   -0.8110 N.ar    1  UNL1       -0.2097
      6 C           0.0796   -5.4061   -1.8028 C.ar    1  UNL1        0.1640
      7 C           0.1854   -6.8691   -1.8369 C.ar    1  UNL1        0.0192
      8 C           0.5695   -7.5413   -3.0110 C.ar    1  UNL1       -0.0510
      9 C           0.6731   -8.9348   -3.0436 C.ar    1  UNL1       -0.0611
     10 C           0.3757   -9.6814   -1.9058 C.ar    1  UNL1       -0.0617
     11 C          -0.0191   -9.0371   -0.7355 C.ar    1  UNL1       -0.0611
     12 C          -0.1057   -7.6427   -0.7002 C.ar    1  UNL1       -0.0510
     13 N          -0.6585   -4.8359   -2.7679 N.ar    1  UNL1       -0.2121
     14 C          -0.8493   -3.4919   -2.7877 C.ar    1  UNL1        0.1321
     15 N          -1.7054   -3.1530   -3.7997 N.pl3   1  UNL1       -0.3284
     16 C          -2.4500   -1.9440   -3.9594 C.3     1  UNL1        0.0119
     17 C          -1.9378   -1.1947   -5.1889 C.3     1  UNL1       -0.0215
     18 C          -2.7334   -1.5112   -6.4594 C.3     1  UNL1        0.0161
     19 N          -4.1389   -1.1574   -6.3306 N.am    1  UNL1       -0.3014
     20 C          -5.1882   -2.1388   -6.1908 C.3     1  UNL1        0.0151
     21 C          -6.4586   -1.3118   -6.1958 C.3     1  UNL1       -0.0289
     22 C          -6.0237    0.0562   -5.6884 C.3     1  UNL1        0.0256
     23 C          -4.5822    0.1372   -6.1076 C.2     1  UNL1        0.2156
     24 O          -3.9082    1.1565   -6.1290 O.2     1  UNL1       -0.2756
     25 C          -0.1765   -2.6988   -1.8211 C.ar    1  UNL1        0.0615
     26 C           0.0331   -1.3047   -1.4443 C.ar    1  UNL1       -0.0176
     27 C          -0.4496   -0.0218   -2.0317 C.3     1  UNL1       -0.0373
     28 H           1.0046   -0.1766    1.4755 H       1  UNL1        0.0292
     29 H           1.2088    0.7955    0.0122 H       1  UNL1        0.0292
     30 H           2.5179   -0.2637    0.5443 H       1  UNL1        0.0292
     31 H           1.7691   -2.9076    0.7266 H       1  UNL1        0.1670
     32 H           0.8002   -6.9693   -3.9083 H       1  UNL1        0.0625
     33 H           0.9850   -9.4343   -3.9571 H       1  UNL1        0.0618
     34 H           0.4506  -10.7654   -1.9314 H       1  UNL1        0.0618
     35 H          -0.2607   -9.6174    0.1510 H       1  UNL1        0.0618
     36 H          -0.4184   -7.1514    0.2195 H       1  UNL1        0.0625
     37 H          -2.0086   -3.9756   -4.3093 H       1  UNL1        0.1475
     38 H          -3.5020   -2.2064   -4.0542 H       1  UNL1        0.0462
     39 H          -2.4412   -1.3396   -3.0544 H       1  UNL1        0.0462
     40 H          -1.9949   -0.1182   -4.9959 H       1  UNL1        0.0295
     41 H          -0.8773   -1.4163   -5.3684 H       1  UNL1        0.0295
     42 H          -2.3224   -0.9175   -7.2846 H       1  UNL1        0.0465
     43 H          -2.6504   -2.5693   -6.7301 H       1  UNL1        0.0465
     44 H          -5.0761   -2.6771   -5.2471 H       1  UNL1        0.0465
     45 H          -5.1523   -2.8542   -7.0170 H       1  UNL1        0.0465
     46 H          -7.2473   -1.7554   -5.5809 H       1  UNL1        0.0285
     47 H          -6.8380   -1.2208   -7.2195 H       1  UNL1        0.0285
     48 H          -6.0643    0.1072   -4.5948 H       1  UNL1        0.0359
     49 H          -6.6098    0.8669   -6.1251 H       1  UNL1        0.0359
     50 H          -1.1112    0.4878   -1.3203 H       1  UNL1        0.0278
     51 H           0.3985    0.6423   -2.2321 H       1  UNL1        0.0278
     52 H          -0.9649   -0.1119   -2.9756 H       1  UNL1        0.0278
@<TRIPOS>BOND
     1     1     2    1
     2     2     3   ar
     3     3     4   ar
     4     4     5   ar
     5     5     6   ar
     6     6     7    1
     7     7     8   ar
     8     8     9   ar
     9     9    10   ar
    10    10    11   ar
    11    11    12   ar
    12     7    12   ar
    13     6    13   ar
    14    13    14   ar
    15    14    15    1
    16    15    16    1
    17    16    17    1
    18    17    18    1
    19    18    19    1
    20    19    20    1
    21    20    21    1
    22    21    22    1
    23    22    23    1
    24    19    23   am
    25    23    24    2
    26    14    25   ar
    27     4    25   ar
    28    25    26   ar
    29     2    26   ar
    30    26    27    1
    31     1    28    1
    32     1    29    1
    33     1    30    1
    34     3    31    1
    35     8    32    1
    36     9    33    1
    37    10    34    1
    38    11    35    1
    39    12    36    1
    40    15    37    1
    41    16    38    1
    42    16    39    1
    43    17    40    1
    44    17    41    1
    45    18    42    1
    46    18    43    1
    47    20    44    1
    48    20    45    1
    49    21    46    1
    50    21    47    1
    51    22    48    1
    52    22    49    1
    53    27    50    1
    54    27    51    1
    55    27    52    1
