@<TRIPOS>MOLECULE
mol_CHEMBL4062946_0
 63 66 0 0 0
SMALL
GASTEIGER

@<TRIPOS>ATOM
      1 C           0.9536    0.2114    0.0021 C.3     1  UNL1       -0.0376
      2 C           2.4248    0.0188   -0.0662 C.ar    1  UNL1       -0.0206
      3 C           3.3618    1.0378   -0.1006 C.ar    1  UNL1        0.0071
      4 N           4.6080    0.4735   -0.1031 N.ar    1  UNL1       -0.3454
      5 C           4.4992   -0.8875   -0.0634 C.ar    1  UNL1        0.1434
      6 N           5.5472   -1.7207   -0.0187 N.ar    1  UNL1       -0.2178
      7 C           5.1462   -2.9985    0.0539 C.ar    1  UNL1        0.1204
      8 N           3.8865   -3.4785    0.0688 N.ar    1  UNL1       -0.2200
      9 C           2.8484   -2.6077   -0.0298 C.ar    1  UNL1        0.1342
     10 N           1.5752   -3.1203   -0.0830 N.pl3   1  UNL1       -0.3086
     11 C           0.6944   -2.8202   -1.2046 C.3     1  UNL1        0.0426
     12 C           0.1988   -4.1190   -1.8585 C.3     1  UNL1        0.0765
     13 N          -0.4558   -5.0041   -0.8493 N.pl3   1  UNL1       -0.2183
     14 C          -1.8211   -5.2921   -0.9759 C.cat   1  UNL1        0.3883
     15 N          -2.4546   -4.6384   -1.9109 N.2     1  UNL1        0.0068
     16 C          -3.7665   -4.7050   -2.1163 C.1     1  UNL1        0.2951
     17 N          -4.8977   -4.7332   -2.3756 N.1     1  UNL1       -0.1505
     18 N          -2.3070   -6.2119   -0.0671 N.pl3   1  UNL1       -0.2052
     19 C          -3.5257   -6.9238   -0.0905 C.ar    1  UNL1        0.0924
     20 C          -4.3473   -6.8941    1.0464 C.ar    1  UNL1       -0.0252
     21 C          -5.6372   -7.4265    1.0126 C.ar    1  UNL1       -0.0580
     22 C          -6.1265   -7.9865   -0.1660 C.ar    1  UNL1       -0.0494
     23 C          -5.3167   -8.0503   -1.3068 C.ar    1  UNL1        0.0398
     24 C          -5.9103   -8.6163   -2.5557 C.2     1  UNL1        0.2444
     25 O          -6.8990   -9.3399   -2.4901 O.2     1  UNL1       -0.2702
     26 N          -5.3197   -8.2521   -3.7499 N.am    1  UNL1       -0.3090
     27 C          -5.8381   -8.6987   -5.0358 C.3     1  UNL1        0.0178
     28 C          -7.0348   -7.8495   -5.4593 C.3     1  UNL1       -0.0469
     29 C          -4.7406   -8.6385   -6.0948 C.3     1  UNL1       -0.0469
     30 C          -4.0031   -7.5564   -1.2474 C.ar    1  UNL1       -0.0131
     31 C           0.4684   -5.3632    0.2619 C.3     1  UNL1        0.0845
     32 C           1.5266   -6.3571   -0.2193 C.3     1  UNL1       -0.0315
     33 C           1.1225   -4.0990    0.9011 C.3     1  UNL1        0.0452
     34 C           3.1521   -1.2250   -0.0698 C.ar    1  UNL1        0.0614
     35 H           0.7020    1.2406    0.2783 H       1  UNL1        0.0278
     36 H           0.5080   -0.4489    0.7526 H       1  UNL1        0.0278
     37 H           0.4967    0.0107   -0.9711 H       1  UNL1        0.0278
     38 H           3.2428    2.1137   -0.1021 H       1  UNL1        0.0810
     39 H           5.4889    0.9667   -0.1047 H       1  UNL1        0.1668
     40 H           5.9381   -3.7399    0.1029 H       1  UNL1        0.1048
     41 H           1.1954   -2.2137   -1.9685 H       1  UNL1        0.0493
     42 H          -0.1693   -2.2559   -0.8363 H       1  UNL1        0.0493
     43 H           1.0337   -4.6555   -2.3213 H       1  UNL1        0.0650
     44 H          -0.4646   -3.8520   -2.6875 H       1  UNL1        0.0650
     45 H          -1.8660   -6.2480    0.8367 H       1  UNL1        0.2512
     46 H          -4.0090   -6.4099    1.9594 H       1  UNL1        0.0650
     47 H          -6.2765   -7.3684    1.8902 H       1  UNL1        0.0619
     48 H          -7.1512   -8.3534   -0.2018 H       1  UNL1        0.0625
     49 H          -4.6248   -7.5188   -3.7544 H       1  UNL1        0.1493
     50 H          -6.1668   -9.7393   -4.9272 H       1  UNL1        0.0493
     51 H          -6.7598   -6.7922   -5.5422 H       1  UNL1        0.0247
     52 H          -7.8477   -7.9214   -4.7292 H       1  UNL1        0.0247
     53 H          -7.4242   -8.1791   -6.4283 H       1  UNL1        0.0247
     54 H          -4.3771   -7.6138   -6.2322 H       1  UNL1        0.0247
     55 H          -5.1077   -9.0012   -7.0608 H       1  UNL1        0.0247
     56 H          -3.8839   -9.2558   -5.8038 H       1  UNL1        0.0247
     57 H          -3.3469   -7.6311   -2.1090 H       1  UNL1        0.0658
     58 H          -0.0637   -5.8572    1.0788 H       1  UNL1        0.0684
     59 H           2.1982   -5.9233   -0.9658 H       1  UNL1        0.0262
     60 H           1.0538   -7.2390   -0.6636 H       1  UNL1        0.0262
     61 H           2.1464   -6.6915    0.6197 H       1  UNL1        0.0262
     62 H           1.9241   -4.3984    1.5883 H       1  UNL1        0.0496
     63 H           0.3644   -3.5995    1.5186 H       1  UNL1        0.0496
@<TRIPOS>BOND
     1     1     2    1
     2     2     3   ar
     3     3     4   ar
     4     4     5   ar
     5     5     6   ar
     6     6     7   ar
     7     7     8   ar
     8     8     9   ar
     9     9    10    1
    10    10    11    1
    11    11    12    1
    12    12    13    1
    13    13    14    1
    14    14    15    2
    15    15    16    1
    16    16    17    3
    17    14    18    1
    18    18    19    1
    19    19    20   ar
    20    20    21   ar
    21    21    22   ar
    22    22    23   ar
    23    23    24    1
    24    24    25    2
    25    24    26   am
    26    26    27    1
    27    27    28    1
    28    27    29    1
    29    23    30   ar
    30    19    30   ar
    31    13    31    1
    32    31    32    1
    33    31    33    1
    34    10    33    1
    35     9    34   ar
    36     2    34   ar
    37     5    34   ar
    38     1    35    1
    39     1    36    1
    40     1    37    1
    41     3    38    1
    42     4    39    1
    43     7    40    1
    44    11    41    1
    45    11    42    1
    46    12    43    1
    47    12    44    1
    48    18    45    1
    49    20    46    1
    50    21    47    1
    51    22    48    1
    52    26    49    1
    53    27    50    1
    54    28    51    1
    55    28    52    1
    56    28    53    1
    57    29    54    1
    58    29    55    1
    59    29    56    1
    60    30    57    1
    61    31    58    1
    62    32    59    1
    63    32    60    1
    64    32    61    1
    65    33    62    1
    66    33    63    1
@<TRIPOS>MOLECULE
mol_CHEMBL4062806_1
 63 66 0 0 0
SMALL
GASTEIGER

@<TRIPOS>ATOM
      1 C           1.0235   -0.2796    0.1392 C.3     1  UNL1       -0.0376
      2 C           0.6882   -0.7784   -1.2188 C.ar    1  UNL1       -0.0206
      3 C           0.7713   -2.1021   -1.6192 C.ar    1  UNL1        0.0071
      4 N           0.3266   -2.1883   -2.9093 N.ar    1  UNL1       -0.3454
      5 C          -0.0465   -0.9523   -3.3524 C.ar    1  UNL1        0.1434
      6 N          -0.5709   -0.7258   -4.5643 N.ar    1  UNL1       -0.2178
      7 C          -0.8933    0.5642   -4.7183 C.ar    1  UNL1        0.1204
      8 N          -0.7374    1.5670   -3.8362 N.ar    1  UNL1       -0.2200
      9 C          -0.1639    1.3128   -2.6289 C.ar    1  UNL1        0.1342
     10 N          -0.0536    2.3587   -1.7456 N.pl3   1  UNL1       -0.3086
     11 C           1.2186    2.7767   -1.1586 C.3     1  UNL1        0.0426
     12 C           1.5156    4.2761   -1.4102 C.3     1  UNL1        0.0765
     13 N           0.3344    5.1394   -1.1097 N.pl3   1  UNL1       -0.2183
     14 C           0.4413    6.1872   -0.1839 C.cat   1  UNL1        0.3883
     15 N           1.6390    6.4418    0.2923 N.2     1  UNL1        0.0068
     16 C           1.8054    7.4408    1.1586 C.1     1  UNL1        0.2951
     17 N           1.9117    8.3293    1.8993 N.1     1  UNL1       -0.1505
     18 N          -0.6522    6.9700    0.1495 N.pl3   1  UNL1       -0.2052
     19 C          -2.0259    6.6797    0.1583 C.ar    1  UNL1        0.0924
     20 C          -2.5046    5.4453    0.5916 C.ar    1  UNL1       -0.0252
     21 C          -3.7233    4.9864    0.1152 C.ar    1  UNL1       -0.0580
     22 C          -4.4914    5.7960   -0.7238 C.ar    1  UNL1       -0.0494
     23 C          -4.1620    7.1311   -0.9576 C.ar    1  UNL1        0.0398
     24 C          -4.9850    8.1429   -1.6969 C.2     1  UNL1        0.2444
     25 O          -4.5064    9.2680   -1.8729 O.2     1  UNL1       -0.2702
     26 N          -6.2580    7.9606   -2.1723 N.am    1  UNL1       -0.3090
     27 C          -7.1687    6.8317   -2.3015 C.3     1  UNL1        0.0178
     28 C          -8.4558    7.0662   -1.5244 C.3     1  UNL1       -0.0469
     29 C          -7.4145    6.5333   -3.7751 C.3     1  UNL1       -0.0469
     30 C          -2.9023    7.5603   -0.4994 C.ar    1  UNL1       -0.0131
     31 C          -0.8417    4.7218   -1.9156 C.3     1  UNL1        0.0845
     32 C          -0.6575    4.9547   -3.4144 C.3     1  UNL1       -0.0315
     33 C          -1.1980    3.2509   -1.5854 C.3     1  UNL1        0.0452
     34 C           0.1903   -0.0268   -2.3427 C.ar    1  UNL1        0.0614
     35 H           0.9131   -1.0744    0.8847 H       1  UNL1        0.0278
     36 H           0.3582    0.5334    0.4404 H       1  UNL1        0.0278
     37 H           2.0591    0.0726    0.1694 H       1  UNL1        0.0278
     38 H           1.0859   -2.9890   -1.0845 H       1  UNL1        0.0810
     39 H           0.2417   -3.0296   -3.4607 H       1  UNL1        0.1668
     40 H          -1.3411    0.8350   -5.6693 H       1  UNL1        0.1048
     41 H           1.1746    2.6180   -0.0758 H       1  UNL1        0.0493
     42 H           2.0556    2.1844   -1.5477 H       1  UNL1        0.0493
     43 H           2.3961    4.5453   -0.8185 H       1  UNL1        0.0650
     44 H           1.8084    4.4280   -2.4551 H       1  UNL1        0.0650
     45 H          -0.4602    7.9185    0.4561 H       1  UNL1        0.2512
     46 H          -1.8647    4.7789    1.1638 H       1  UNL1        0.0650
     47 H          -4.0320    3.9606    0.3026 H       1  UNL1        0.0619
     48 H          -5.3047    5.2883   -1.2025 H       1  UNL1        0.0625
     49 H          -6.5973    8.8319   -2.5672 H       1  UNL1        0.1493
     50 H          -6.7442    5.9393   -1.8846 H       1  UNL1        0.0493
     51 H          -9.0470    7.8814   -1.9504 H       1  UNL1        0.0247
     52 H          -9.0676    6.1572   -1.5252 H       1  UNL1        0.0247
     53 H          -8.2344    7.3162   -0.4804 H       1  UNL1        0.0247
     54 H          -6.4647    6.4627   -4.3187 H       1  UNL1        0.0247
     55 H          -7.9375    5.5786   -3.8916 H       1  UNL1        0.0247
     56 H          -8.0133    7.3167   -4.2494 H       1  UNL1        0.0247
     57 H          -2.5484    8.5579   -0.7609 H       1  UNL1        0.0658
     58 H          -1.7124    5.3218   -1.7073 H       1  UNL1        0.0684
     59 H          -1.5861    4.7040   -3.9422 H       1  UNL1        0.0262
     60 H          -0.4397    6.0093   -3.6114 H       1  UNL1        0.0262
     61 H           0.1390    4.3509   -3.8531 H       1  UNL1        0.0262
     62 H          -1.4910    3.1714   -0.5326 H       1  UNL1        0.0496
     63 H          -2.0756    2.9300   -2.1605 H       1  UNL1        0.0496
@<TRIPOS>BOND
     1     1     2    1
     2     2     3   ar
     3     3     4   ar
     4     4     5   ar
     5     5     6   ar
     6     6     7   ar
     7     7     8   ar
     8     8     9   ar
     9     9    10    1
    10    10    11    1
    11    11    12    1
    12    12    13    1
    13    13    14    1
    14    14    15    2
    15    15    16    1
    16    16    17    3
    17    14    18    1
    18    18    19    1
    19    19    20   ar
    20    20    21   ar
    21    21    22   ar
    22    22    23   ar
    23    23    24    1
    24    24    25    2
    25    24    26   am
    26    26    27    1
    27    27    28    1
    28    27    29    1
    29    23    30   ar
    30    19    30   ar
    31    13    31    1
    32    31    32    1
    33    31    33    1
    34    10    33    1
    35     9    34   ar
    36     2    34   ar
    37     5    34   ar
    38     1    35    1
    39     1    36    1
    40     1    37    1
    41     3    38    1
    42     4    39    1
    43     7    40    1
    44    11    41    1
    45    11    42    1
    46    12    43    1
    47    12    44    1
    48    18    45    1
    49    20    46    1
    50    21    47    1
    51    22    48    1
    52    26    49    1
    53    27    50    1
    54    28    51    1
    55    28    52    1
    56    28    53    1
    57    29    54    1
    58    29    55    1
    59    29    56    1
    60    30    57    1
    61    31    58    1
    62    32    59    1
    63    32    60    1
    64    32    61    1
    65    33    62    1
    66    33    63    1
@<TRIPOS>MOLECULE
mol_CHEMBL4085457_2
 63 66 0 0 0
SMALL
GASTEIGER

@<TRIPOS>ATOM
      1 C           0.7417   -0.1615    0.1575 C.3     1  UNL1       -0.0376
      2 C           0.3782    1.2475    0.4531 C.ar    1  UNL1       -0.0206
      3 C          -0.5699    1.6472    1.3802 C.ar    1  UNL1        0.0071
      4 N          -0.5673    3.0136    1.4331 N.ar    1  UNL1       -0.3454
      5 C           0.3666    3.5072    0.5683 C.ar    1  UNL1        0.1434
      6 N           0.6460    4.8114    0.4413 N.ar    1  UNL1       -0.2178
      7 C           1.6331    5.0103   -0.4413 C.ar    1  UNL1        0.1204
      8 N           2.2944    4.0896   -1.1653 N.ar    1  UNL1       -0.2200
      9 C           1.9541    2.7770   -1.0496 C.ar    1  UNL1        0.1342
     10 N           2.6500    1.8743   -1.8142 N.pl3   1  UNL1       -0.3086
     11 C           2.0104    0.8784   -2.6708 C.3     1  UNL1        0.0426
     12 C           2.5927    0.8812   -4.1056 C.3     1  UNL1        0.0765
     13 N           4.0858    0.8868   -4.1012 N.pl3   1  UNL1       -0.2183
     14 C           4.7939   -0.1217   -4.7696 C.cat   1  UNL1        0.3883
     15 N           4.0892   -0.9561   -5.5016 N.2     1  UNL1        0.0068
     16 C           4.7058   -1.9220   -6.1820 C.1     1  UNL1        0.2951
     17 N           5.2852   -2.7391   -6.7706 N.1     1  UNL1       -0.1505
     18 N           6.1759   -0.1979   -4.7223 N.pl3   1  UNL1       -0.2052
     19 C           7.0992    0.3393   -3.8148 C.ar    1  UNL1        0.0924
     20 C           6.9279    0.2079   -2.4383 C.ar    1  UNL1       -0.0252
     21 C           7.5494    1.1120   -1.5886 C.ar    1  UNL1       -0.0580
     22 C           8.3974    2.0957   -2.1094 C.ar    1  UNL1       -0.0494
     23 C           8.7441    2.1252   -3.4619 C.ar    1  UNL1        0.0398
     24 C           9.7083    3.0569   -4.1334 C.2     1  UNL1        0.2444
     25 O           9.9097    2.9138   -5.3441 O.2     1  UNL1       -0.2702
     26 N          10.4236    4.0605   -3.5368 N.am    1  UNL1       -0.3090
     27 C          10.4638    4.6681   -2.2154 C.3     1  UNL1        0.0178
     28 C          11.8243    4.4529   -1.5655 C.3     1  UNL1       -0.0469
     29 C          10.0825    6.1401   -2.3049 C.3     1  UNL1       -0.0469
     30 C           8.0864    1.2102   -4.3054 C.ar    1  UNL1       -0.0131
     31 C           4.6031    2.0549   -3.3425 C.3     1  UNL1        0.0845
     32 C           4.2810    3.3946   -4.0033 C.3     1  UNL1       -0.0315
     33 C           4.1028    1.9880   -1.8795 C.3     1  UNL1        0.0452
     34 C           0.9541    2.4436   -0.1062 C.ar    1  UNL1        0.0614
     35 H           0.2973   -0.4810   -0.7893 H       1  UNL1        0.0278
     36 H           0.3786   -0.8354    0.9404 H       1  UNL1        0.0278
     37 H           1.8285   -0.2800    0.1059 H       1  UNL1        0.0278
     38 H          -1.2218    1.0718    2.0247 H       1  UNL1        0.0810
     39 H          -1.1297    3.5922    2.0397 H       1  UNL1        0.1668
     40 H           1.9407    6.0407   -0.5898 H       1  UNL1        0.1048
     41 H           2.1766   -0.1149   -2.2417 H       1  UNL1        0.0493
     42 H           0.9283    1.0429   -2.7382 H       1  UNL1        0.0493
     43 H           2.1743    0.0191   -4.6344 H       1  UNL1        0.0650
     44 H           2.2368    1.7611   -4.6531 H       1  UNL1        0.0650
     45 H           6.6343   -0.6724   -5.4941 H       1  UNL1        0.2512
     46 H           6.2068   -0.5012   -2.0402 H       1  UNL1        0.0650
     47 H           7.3084    1.1168   -0.5279 H       1  UNL1        0.0619
     48 H           8.7233    2.8202   -1.3899 H       1  UNL1        0.0625
     49 H          11.0388    4.4857   -4.2233 H       1  UNL1        0.1493
     50 H           9.7310    4.2275   -1.5652 H       1  UNL1        0.0493
     51 H          12.6145    4.9997   -2.0897 H       1  UNL1        0.0247
     52 H          11.8074    4.7883   -0.5232 H       1  UNL1        0.0247
     53 H          12.0932    3.3902   -1.5707 H       1  UNL1        0.0247
     54 H           9.1403    6.2585   -2.8530 H       1  UNL1        0.0247
     55 H           9.9402    6.5580   -1.3028 H       1  UNL1        0.0247
     56 H          10.8476    6.7271   -2.8211 H       1  UNL1        0.0247
     57 H           8.2571    1.2525   -5.3816 H       1  UNL1        0.0658
     58 H           5.6778    2.0818   -3.3135 H       1  UNL1        0.0684
     59 H           4.7636    4.2052   -3.4430 H       1  UNL1        0.0262
     60 H           4.6739    3.4192   -5.0247 H       1  UNL1        0.0262
     61 H           3.2125    3.6155   -4.0374 H       1  UNL1        0.0262
     62 H           4.5025    1.0894   -1.3946 H       1  UNL1        0.0496
     63 H           4.4934    2.8365   -1.3042 H       1  UNL1        0.0496
@<TRIPOS>BOND
     1     1     2    1
     2     2     3   ar
     3     3     4   ar
     4     4     5   ar
     5     5     6   ar
     6     6     7   ar
     7     7     8   ar
     8     8     9   ar
     9     9    10    1
    10    10    11    1
    11    11    12    1
    12    12    13    1
    13    13    14    1
    14    14    15    2
    15    15    16    1
    16    16    17    3
    17    14    18    1
    18    18    19    1
    19    19    20   ar
    20    20    21   ar
    21    21    22   ar
    22    22    23   ar
    23    23    24    1
    24    24    25    2
    25    24    26   am
    26    26    27    1
    27    27    28    1
    28    27    29    1
    29    23    30   ar
    30    19    30   ar
    31    13    31    1
    32    31    32    1
    33    31    33    1
    34    10    33    1
    35     9    34   ar
    36     2    34   ar
    37     5    34   ar
    38     1    35    1
    39     1    36    1
    40     1    37    1
    41     3    38    1
    42     4    39    1
    43     7    40    1
    44    11    41    1
    45    11    42    1
    46    12    43    1
    47    12    44    1
    48    18    45    1
    49    20    46    1
    50    21    47    1
    51    22    48    1
    52    26    49    1
    53    27    50    1
    54    28    51    1
    55    28    52    1
    56    28    53    1
    57    29    54    1
    58    29    55    1
    59    29    56    1
    60    30    57    1
    61    31    58    1
    62    32    59    1
    63    32    60    1
    64    32    61    1
    65    33    62    1
    66    33    63    1
@<TRIPOS>MOLECULE
mol_CHEMBL4083165_3
 63 66 0 0 0
SMALL
GASTEIGER

@<TRIPOS>ATOM
      1 C           1.0210   -0.3695    0.0621 C.3     1  UNL1       -0.0376
      2 C           0.4098   -0.3096    1.4143 C.ar    1  UNL1       -0.0206
      3 C           0.2030   -1.4168    2.2218 C.ar    1  UNL1        0.0071
      4 N          -0.2873   -0.9875    3.4223 N.ar    1  UNL1       -0.3454
      5 C          -0.3908    0.3733    3.4178 C.ar    1  UNL1        0.1434
      6 N          -0.7820    1.0870    4.4818 N.ar    1  UNL1       -0.2178
      7 C          -0.7469    2.3995    4.2238 C.ar    1  UNL1        0.1204
      8 N          -0.4020    3.0078    3.0751 N.ar    1  UNL1       -0.2200
      9 C          -0.0517    2.2546    1.9972 C.ar    1  UNL1        0.1342
     10 N           0.3136    2.9162    0.8474 N.pl3   1  UNL1       -0.3086
     11 C          -0.4282    2.7558   -0.4052 C.3     1  UNL1        0.0426
     12 C          -1.0278    4.0843   -0.9193 C.3     1  UNL1        0.0765
     13 N          -0.0118    5.1762   -0.9171 N.pl3   1  UNL1       -0.2183
     14 C           0.3349    5.8202   -2.1139 C.cat   1  UNL1        0.3883
     15 N          -0.3673    5.5126   -3.1813 N.2     1  UNL1        0.0068
     16 C          -0.1013    6.1118   -4.3418 C.1     1  UNL1        0.2951
     17 N           0.1505    6.6675   -5.3303 N.1     1  UNL1       -0.1505
     18 N           1.3155    6.7974   -2.1519 N.pl3   1  UNL1       -0.2052
     19 C           2.4392    7.0042   -1.3379 C.ar    1  UNL1        0.0924
     20 C           3.2422    5.9429   -0.9266 C.ar    1  UNL1       -0.0252
     21 C           3.9876    6.0689    0.2357 C.ar    1  UNL1       -0.0580
     22 C           3.9877    7.2778    0.9357 C.ar    1  UNL1       -0.0494
     23 C           3.3913    8.4275    0.4162 C.ar    1  UNL1        0.0398
     24 C           3.4417    9.8101    0.9940 C.2     1  UNL1        0.2444
     25 O           2.8208   10.7073    0.4145 O.2     1  UNL1       -0.2702
     26 N           4.1465   10.2027    2.1016 N.am    1  UNL1       -0.3090
     27 C           4.9122    9.5300    3.1409 C.3     1  UNL1        0.0178
     28 C           6.3639    9.9871    3.1363 C.3     1  UNL1       -0.0469
     29 C           4.2354    9.7238    4.4916 C.3     1  UNL1       -0.0469
     30 C           2.6150    8.2666   -0.7466 C.ar    1  UNL1       -0.0131
     31 C           0.5186    5.3888    0.4538 C.3     1  UNL1        0.0845
     32 C          -0.5299    5.9376    1.4205 C.3     1  UNL1       -0.0315
     33 C           1.1839    4.0847    0.9684 C.3     1  UNL1        0.0452
     34 C          -0.0080    0.8483    2.1677 C.ar    1  UNL1        0.0614
     35 H           0.6070    0.3748   -0.6124 H       1  UNL1        0.0278
     36 H           0.8424   -1.3458   -0.4015 H       1  UNL1        0.0278
     37 H           2.1030   -0.2184    0.1296 H       1  UNL1        0.0278
     38 H           0.3935   -2.4680    2.0477 H       1  UNL1        0.0810
     39 H          -0.5043   -1.5631    4.2227 H       1  UNL1        0.1668
     40 H          -1.0264    3.0545    5.0431 H       1  UNL1        0.1048
     41 H           0.2670    2.3947   -1.1705 H       1  UNL1        0.0493
     42 H          -1.2338    2.0183   -0.3070 H       1  UNL1        0.0493
     43 H          -1.4488    3.9008   -1.9127 H       1  UNL1        0.0650
     44 H          -1.8776    4.3812   -0.2953 H       1  UNL1        0.0650
     45 H           1.2377    7.4981   -2.8823 H       1  UNL1        0.2512
     46 H           3.1684    4.9761   -1.4177 H       1  UNL1        0.0650
     47 H           4.4866    5.2013    0.6613 H       1  UNL1        0.0619
     48 H           4.4382    7.2212    1.9059 H       1  UNL1        0.0625
     49 H           4.0514   11.2062    2.2212 H       1  UNL1        0.1493
     50 H           4.9382    8.4699    2.9800 H       1  UNL1        0.0493
     51 H           6.4614   11.0360    3.4307 H       1  UNL1        0.0247
     52 H           6.9550    9.3773    3.8283 H       1  UNL1        0.0247
     53 H           6.8006    9.8741    2.1372 H       1  UNL1        0.0247
     54 H           3.1710    9.4677    4.4288 H       1  UNL1        0.0247
     55 H           4.6911    9.0726    5.2447 H       1  UNL1        0.0247
     56 H           4.3111   10.7593    4.8359 H       1  UNL1        0.0247
     57 H           2.0410    9.1105   -1.1301 H       1  UNL1        0.0658
     58 H           1.2650    6.1653    0.4842 H       1  UNL1        0.0684
     59 H          -0.0602    6.1602    2.3866 H       1  UNL1        0.0262
     60 H          -0.9497    6.8722    1.0341 H       1  UNL1        0.0262
     61 H          -1.3519    5.2451    1.6097 H       1  UNL1        0.0262
     62 H           2.0605    3.8578    0.3523 H       1  UNL1        0.0496
     63 H           1.5696    4.2250    1.9862 H       1  UNL1        0.0496
@<TRIPOS>BOND
     1     1     2    1
     2     2     3   ar
     3     3     4   ar
     4     4     5   ar
     5     5     6   ar
     6     6     7   ar
     7     7     8   ar
     8     8     9   ar
     9     9    10    1
    10    10    11    1
    11    11    12    1
    12    12    13    1
    13    13    14    1
    14    14    15    2
    15    15    16    1
    16    16    17    3
    17    14    18    1
    18    18    19    1
    19    19    20   ar
    20    20    21   ar
    21    21    22   ar
    22    22    23   ar
    23    23    24    1
    24    24    25    2
    25    24    26   am
    26    26    27    1
    27    27    28    1
    28    27    29    1
    29    23    30   ar
    30    19    30   ar
    31    13    31    1
    32    31    32    1
    33    31    33    1
    34    10    33    1
    35     9    34   ar
    36     2    34   ar
    37     5    34   ar
    38     1    35    1
    39     1    36    1
    40     1    37    1
    41     3    38    1
    42     4    39    1
    43     7    40    1
    44    11    41    1
    45    11    42    1
    46    12    43    1
    47    12    44    1
    48    18    45    1
    49    20    46    1
    50    21    47    1
    51    22    48    1
    52    26    49    1
    53    27    50    1
    54    28    51    1
    55    28    52    1
    56    28    53    1
    57    29    54    1
    58    29    55    1
    59    29    56    1
    60    30    57    1
    61    31    58    1
    62    32    59    1
    63    32    60    1
    64    32    61    1
    65    33    62    1
    66    33    63    1
@<TRIPOS>MOLECULE
mol_CHEMBL4074183_4
 63 66 0 0 0
SMALL
GASTEIGER

@<TRIPOS>ATOM
      1 C           1.0692   -0.0290    0.0769 C.3     1  UNL1       -0.0376
      2 C           0.5361   -1.3732   -0.2578 C.ar    1  UNL1       -0.0206
      3 C           1.1783   -2.5698    0.0186 C.ar    1  UNL1        0.0071
      4 N           0.3775   -3.5937   -0.4018 N.ar    1  UNL1       -0.3454
      5 C          -0.7707   -3.0898   -0.9390 C.ar    1  UNL1        0.1434
      6 N          -1.7662   -3.8605   -1.3974 N.ar    1  UNL1       -0.2178
      7 C          -2.7999   -3.1213   -1.8086 C.ar    1  UNL1        0.1204
      8 N          -2.9127   -1.7840   -1.7852 N.ar    1  UNL1       -0.2200
      9 C          -1.8811   -1.0214   -1.3245 C.ar    1  UNL1        0.1342
     10 N          -2.1276    0.3209   -1.1545 N.pl3   1  UNL1       -0.3086
     11 C          -1.3936    1.4032   -1.8123 C.3     1  UNL1        0.0426
     12 C          -2.3073    2.3808   -2.6156 C.3     1  UNL1        0.0765
     13 N          -3.5964    2.6895   -1.9229 N.pl3   1  UNL1       -0.2183
     14 C          -4.0074    4.0137   -1.7161 C.cat   1  UNL1        0.3883
     15 N          -3.2983    4.9539   -2.2995 N.2     1  UNL1        0.0068
     16 C          -3.6587    6.2293   -2.1564 C.1     1  UNL1        0.2951
     17 N          -4.0211    7.3243   -2.0155 N.1     1  UNL1       -0.1505
     18 N          -5.1527    4.3144   -0.9896 N.pl3   1  UNL1       -0.2052
     19 C          -5.8684    3.5711   -0.0359 C.ar    1  UNL1        0.0924
     20 C          -5.2200    2.9116    1.0060 C.ar    1  UNL1       -0.0252
     21 C          -5.8283    1.8127    1.5974 C.ar    1  UNL1       -0.0580
     22 C          -7.1136    1.4275    1.2050 C.ar    1  UNL1       -0.0494
     23 C          -7.8748    2.2027    0.3289 C.ar    1  UNL1        0.0398
     24 C          -9.2996    1.9690   -0.0767 C.2     1  UNL1        0.2444
     25 O          -9.8179    2.7670   -0.8648 O.2     1  UNL1       -0.2702
     26 N         -10.1188    0.9615    0.3609 N.am    1  UNL1       -0.3090
     27 C          -9.9608   -0.2369    1.1729 C.3     1  UNL1        0.0178
     28 C         -10.8042   -0.1507    2.4383 C.3     1  UNL1       -0.0469
     29 C         -10.2771   -1.4748    0.3428 C.3     1  UNL1       -0.0469
     30 C          -7.2259    3.2960   -0.2794 C.ar    1  UNL1       -0.0131
     31 C          -4.3036    1.4421   -1.5571 C.3     1  UNL1        0.0845
     32 C          -4.7490    0.6240   -2.7687 C.3     1  UNL1       -0.0315
     33 C          -3.4178    0.6604   -0.5650 C.3     1  UNL1        0.0452
     34 C          -0.7229   -1.7003   -0.8772 C.ar    1  UNL1        0.0614
     35 H           0.5064    0.4131    0.9043 H       1  UNL1        0.0278
     36 H           1.0240    0.6366   -0.7871 H       1  UNL1        0.0278
     37 H           2.1215   -0.0891    0.3761 H       1  UNL1        0.0278
     38 H           2.1281   -2.7751    0.4951 H       1  UNL1        0.0810
     39 H           0.5626   -4.5816   -0.3068 H       1  UNL1        0.1668
     40 H          -3.6602   -3.6629   -2.1883 H       1  UNL1        0.1048
     41 H          -0.8854    1.9877   -1.0368 H       1  UNL1        0.0493
     42 H          -0.6242    1.0116   -2.4885 H       1  UNL1        0.0493
     43 H          -1.7220    3.2827   -2.8240 H       1  UNL1        0.0650
     44 H          -2.5350    1.9479   -3.5966 H       1  UNL1        0.0650
     45 H          -5.6055    5.1993   -1.1966 H       1  UNL1        0.2512
     46 H          -4.1892    3.1540    1.2507 H       1  UNL1        0.0650
     47 H          -5.2702    1.1887    2.2923 H       1  UNL1        0.0619
     48 H          -7.4323    0.4860    1.6054 H       1  UNL1        0.0625
     49 H         -11.0468    1.0937   -0.0288 H       1  UNL1        0.1493
     50 H          -8.9416   -0.3605    1.4877 H       1  UNL1        0.0493
     51 H         -11.8752   -0.1689    2.2139 H       1  UNL1        0.0247
     52 H         -10.5785   -0.9902    3.1047 H       1  UNL1        0.0247
     53 H         -10.5913    0.7756    2.9841 H       1  UNL1        0.0247
     54 H          -9.7147   -1.4591   -0.5982 H       1  UNL1        0.0247
     55 H          -9.9922   -2.3816    0.8867 H       1  UNL1        0.0247
     56 H         -11.3412   -1.5371    0.0972 H       1  UNL1        0.0247
     57 H          -7.7470    3.8695   -1.0463 H       1  UNL1        0.0658
     58 H          -5.2458    1.6305   -1.0748 H       1  UNL1        0.0684
     59 H          -5.3044   -0.2602   -2.4331 H       1  UNL1        0.0262
     60 H          -5.4219    1.2166   -3.3972 H       1  UNL1        0.0262
     61 H          -3.9229    0.2777   -3.3926 H       1  UNL1        0.0262
     62 H          -3.1890    1.2878    0.3040 H       1  UNL1        0.0496
     63 H          -3.9549   -0.2083   -0.1641 H       1  UNL1        0.0496
@<TRIPOS>BOND
     1     1     2    1
     2     2     3   ar
     3     3     4   ar
     4     4     5   ar
     5     5     6   ar
     6     6     7   ar
     7     7     8   ar
     8     8     9   ar
     9     9    10    1
    10    10    11    1
    11    11    12    1
    12    12    13    1
    13    13    14    1
    14    14    15    2
    15    15    16    1
    16    16    17    3
    17    14    18    1
    18    18    19    1
    19    19    20   ar
    20    20    21   ar
    21    21    22   ar
    22    22    23   ar
    23    23    24    1
    24    24    25    2
    25    24    26   am
    26    26    27    1
    27    27    28    1
    28    27    29    1
    29    23    30   ar
    30    19    30   ar
    31    13    31    1
    32    31    32    1
    33    31    33    1
    34    10    33    1
    35     9    34   ar
    36     2    34   ar
    37     5    34   ar
    38     1    35    1
    39     1    36    1
    40     1    37    1
    41     3    38    1
    42     4    39    1
    43     7    40    1
    44    11    41    1
    45    11    42    1
    46    12    43    1
    47    12    44    1
    48    18    45    1
    49    20    46    1
    50    21    47    1
    51    22    48    1
    52    26    49    1
    53    27    50    1
    54    28    51    1
    55    28    52    1
    56    28    53    1
    57    29    54    1
    58    29    55    1
    59    29    56    1
    60    30    57    1
    61    31    58    1
    62    32    59    1
    63    32    60    1
    64    32    61    1
    65    33    62    1
    66    33    63    1
@<TRIPOS>MOLECULE
mol_CHEMBL4069969_5
 63 66 0 0 0
SMALL
GASTEIGER

@<TRIPOS>ATOM
      1 C           0.9851   -0.1476    0.0503 C.3     1  UNL1       -0.0376
      2 C           0.6399   -0.5439   -1.3387 C.ar    1  UNL1       -0.0206
      3 C           0.6842   -1.8392   -1.8281 C.ar    1  UNL1        0.0071
      4 N           0.2408   -1.8239   -3.1215 N.ar    1  UNL1       -0.3454
      5 C          -0.0937   -0.5499   -3.4797 C.ar    1  UNL1        0.1434
      6 N          -0.6084   -0.2254   -4.6733 N.ar    1  UNL1       -0.2178
      7 C          -0.8915    1.0814   -4.7389 C.ar    1  UNL1        0.1204
      8 N          -0.7069    2.0164   -3.7903 N.ar    1  UNL1       -0.2200
      9 C          -0.1438    1.6630   -2.6033 C.ar    1  UNL1        0.1342
     10 N          -0.0050    2.6416   -1.6498 N.pl3   1  UNL1       -0.3086
     11 C           1.2771    2.9820   -1.0349 C.3     1  UNL1        0.0426
     12 C           1.6159    4.4871   -1.1793 C.3     1  UNL1        0.0765
     13 N           0.4574    5.3603   -0.8238 N.pl3   1  UNL1       -0.2183
     14 C           0.5896    6.3427    0.1680 C.cat   1  UNL1        0.3883
     15 N           1.7924    6.5348    0.6603 N.2     1  UNL1        0.0068
     16 C           1.9821    7.4705    1.5902 C.1     1  UNL1        0.2951
     17 N           2.1092    8.3057    2.3875 N.1     1  UNL1       -0.1505
     18 N          -0.4845    7.1297    0.5511 N.pl3   1  UNL1       -0.2052
     19 C          -1.8651    6.8733    0.5406 C.ar    1  UNL1        0.0924
     20 C          -2.3743    5.6254    0.8929 C.ar    1  UNL1       -0.0252
     21 C          -3.6025    5.2275    0.3870 C.ar    1  UNL1       -0.0580
     22 C          -4.3489    6.1076   -0.3991 C.ar    1  UNL1       -0.0494
     23 C          -3.9865    7.4464   -0.5471 C.ar    1  UNL1        0.0398
     24 C          -4.7825    8.5226   -1.2224 C.2     1  UNL1        0.2444
     25 O          -4.2772    9.6453   -1.3235 O.2     1  UNL1       -0.2702
     26 N          -6.0567    8.4011   -1.7135 N.am    1  UNL1       -0.3090
     27 C          -6.9928    7.3047   -1.9189 C.3     1  UNL1        0.0178
     28 C          -8.2771    7.5178   -1.1310 C.3     1  UNL1       -0.0469
     29 C          -7.2399    7.1095   -3.4095 C.3     1  UNL1       -0.0469
     30 C          -2.7183    7.8151   -0.0604 C.ar    1  UNL1       -0.0131
     31 C          -0.7266    5.0305   -1.6583 C.3     1  UNL1        0.0845
     32 C          -0.5302    5.3578   -3.1378 C.3     1  UNL1       -0.0315
     33 C          -1.1243    3.5516   -1.4276 C.3     1  UNL1        0.0452
     34 C           0.1687    0.2970   -2.4093 C.ar    1  UNL1        0.0614
     35 H           0.8627   -0.9907    0.7386 H       1  UNL1        0.0278
     36 H           0.3335    0.6534    0.4087 H       1  UNL1        0.0278
     37 H           2.0264    0.1848    0.1028 H       1  UNL1        0.0278
     38 H           0.9699   -2.7696   -1.3547 H       1  UNL1        0.0810
     39 H           0.1319   -2.6228   -3.7289 H       1  UNL1        0.1668
     40 H          -1.3293    1.4300   -5.6689 H       1  UNL1        0.1048
     41 H           1.2267    2.7479    0.0339 H       1  UNL1        0.0493
     42 H           2.0982    2.3961   -1.4651 H       1  UNL1        0.0493
     43 H           2.4998    4.6895   -0.5663 H       1  UNL1        0.0650
     44 H           1.9190    4.7037   -2.2098 H       1  UNL1        0.0650
     45 H          -0.2696    8.0515    0.9181 H       1  UNL1        0.2512
     46 H          -1.7518    4.9081    1.4214 H       1  UNL1        0.0650
     47 H          -3.9361    4.1995    0.5077 H       1  UNL1        0.0619
     48 H          -5.1734    5.6513   -0.9092 H       1  UNL1        0.0625
     49 H          -6.3738    9.3039   -2.0522 H       1  UNL1        0.1493
     50 H          -6.5904    6.3771   -1.5613 H       1  UNL1        0.0493
     51 H          -8.8477    8.3725   -1.5042 H       1  UNL1        0.0247
     52 H          -8.9097    6.6252   -1.1926 H       1  UNL1        0.0247
     53 H          -8.0540    7.6940   -0.0724 H       1  UNL1        0.0247
     54 H          -6.2899    7.0523   -3.9542 H       1  UNL1        0.0247
     55 H          -7.7844    6.1769   -3.5895 H       1  UNL1        0.0247
     56 H          -7.8185    7.9360   -3.8328 H       1  UNL1        0.0247
     57 H          -2.3398    8.8184   -0.2571 H       1  UNL1        0.0658
     58 H          -1.5814    5.6389   -1.4120 H       1  UNL1        0.0684
     59 H          -1.4627    5.1664   -3.6835 H       1  UNL1        0.0262
     60 H          -0.2849    6.4171   -3.2636 H       1  UNL1        0.0262
     61 H           0.2527    4.7644   -3.6137 H       1  UNL1        0.0262
     62 H          -1.4193    3.4090   -0.3821 H       1  UNL1        0.0496
     63 H          -2.0103    3.2947   -2.0216 H       1  UNL1        0.0496
@<TRIPOS>BOND
     1     1     2    1
     2     2     3   ar
     3     3     4   ar
     4     4     5   ar
     5     5     6   ar
     6     6     7   ar
     7     7     8   ar
     8     8     9   ar
     9     9    10    1
    10    10    11    1
    11    11    12    1
    12    12    13    1
    13    13    14    1
    14    14    15    2
    15    15    16    1
    16    16    17    3
    17    14    18    1
    18    18    19    1
    19    19    20   ar
    20    20    21   ar
    21    21    22   ar
    22    22    23   ar
    23    23    24    1
    24    24    25    2
    25    24    26   am
    26    26    27    1
    27    27    28    1
    28    27    29    1
    29    23    30   ar
    30    19    30   ar
    31    13    31    1
    32    31    32    1
    33    31    33    1
    34    10    33    1
    35     9    34   ar
    36     2    34   ar
    37     5    34   ar
    38     1    35    1
    39     1    36    1
    40     1    37    1
    41     3    38    1
    42     4    39    1
    43     7    40    1
    44    11    41    1
    45    11    42    1
    46    12    43    1
    47    12    44    1
    48    18    45    1
    49    20    46    1
    50    21    47    1
    51    22    48    1
    52    26    49    1
    53    27    50    1
    54    28    51    1
    55    28    52    1
    56    28    53    1
    57    29    54    1
    58    29    55    1
    59    29    56    1
    60    30    57    1
    61    31    58    1
    62    32    59    1
    63    32    60    1
    64    32    61    1
    65    33    62    1
    66    33    63    1
@<TRIPOS>MOLECULE
mol_CHEMBL4095629_6
 63 66 0 0 0
SMALL
GASTEIGER

@<TRIPOS>ATOM
      1 C           0.8797   -0.2233    0.1727 C.3     1  UNL1       -0.0376
      2 C           0.5275   -0.5600   -1.2301 C.ar    1  UNL1       -0.0206
      3 C           0.5464   -1.8362   -1.7690 C.ar    1  UNL1        0.0071
      4 N           0.1032   -1.7625   -3.0604 N.ar    1  UNL1       -0.3454
      5 C          -0.2066   -0.4694   -3.3691 C.ar    1  UNL1        0.1434
      6 N          -0.7158   -0.0893   -4.5486 N.ar    1  UNL1       -0.2178
      7 C          -0.9734    1.2243   -4.5633 C.ar    1  UNL1        0.1204
      8 N          -0.7697    2.1184   -3.5798 N.ar    1  UNL1       -0.2200
      9 C          -0.2126    1.7086   -2.4083 C.ar    1  UNL1        0.1342
     10 N          -0.0544    2.6464   -1.4177 N.pl3   1  UNL1       -0.3086
     11 C           1.2339    2.9387   -0.7911 C.3     1  UNL1        0.0426
     12 C           1.5999    4.4422   -0.8747 C.3     1  UNL1        0.0765
     13 N           0.4569    5.3219   -0.4862 N.pl3   1  UNL1       -0.2183
     14 C           0.6064    6.2647    0.5410 C.cat   1  UNL1        0.3883
     15 N           1.8124    6.4180    1.0388 N.2     1  UNL1        0.0068
     16 C           2.0181    7.3153    2.0027 C.1     1  UNL1        0.2951
     17 N           2.1593    8.1179    2.8305 N.1     1  UNL1       -0.1505
     18 N          -0.4543    7.0549    0.9540 N.pl3   1  UNL1       -0.2052
     19 C          -1.8389    6.8216    0.9353 C.ar    1  UNL1        0.0924
     20 C          -2.3681    5.5699    1.2419 C.ar    1  UNL1       -0.0252
     21 C          -3.6025    5.2106    0.7226 C.ar    1  UNL1       -0.0580
     22 C          -4.3346    6.1305   -0.0306 C.ar    1  UNL1       -0.0494
     23 C          -3.9505    7.4678   -0.1305 C.ar    1  UNL1        0.0398
     24 C          -4.7285    8.5803   -0.7669 C.2     1  UNL1        0.2444
     25 O          -4.2056    9.6979   -0.8262 O.2     1  UNL1       -0.2702
     26 N          -6.0035    8.4968   -1.2639 N.am    1  UNL1       -0.3090
     27 C          -6.9563    7.4237   -1.5108 C.3     1  UNL1        0.0178
     28 C          -8.2379    7.6273   -0.7159 C.3     1  UNL1       -0.0469
     29 C          -7.2050    7.2881   -3.0077 C.3     1  UNL1       -0.0469
     30 C          -2.6767    7.7982    0.3691 C.ar    1  UNL1       -0.0131
     31 C          -0.7323    5.0458   -1.3327 C.3     1  UNL1        0.0845
     32 C          -0.5289    5.4253   -2.7987 C.3     1  UNL1       -0.0315
     33 C          -1.1567    3.5669   -1.1580 C.3     1  UNL1        0.0452
     34 C           0.0730    0.3303   -2.2673 C.ar    1  UNL1        0.0614
     35 H           0.7493   -1.0917    0.8273 H       1  UNL1        0.0278
     36 H           0.2375    0.5701    0.5638 H       1  UNL1        0.0278
     37 H           1.9246    0.0954    0.2361 H       1  UNL1        0.0278
     38 H           0.8138   -2.7895   -1.3319 H       1  UNL1        0.0810
     39 H          -0.0216   -2.5353   -3.6979 H       1  UNL1        0.1668
     40 H          -1.4054    1.6169   -5.4784 H       1  UNL1        0.1048
     41 H           1.1798    2.6624    0.2674 H       1  UNL1        0.0493
     42 H           2.0441    2.3560   -1.2456 H       1  UNL1        0.0493
     43 H           2.4861    4.6038   -0.2528 H       1  UNL1        0.0650
     44 H           1.9090    4.6943   -1.8953 H       1  UNL1        0.0650
     45 H          -0.2240    7.9589    1.3543 H       1  UNL1        0.2512
     46 H          -1.7572    4.8239    1.7434 H       1  UNL1        0.0650
     47 H          -3.9526    4.1844    0.8059 H       1  UNL1        0.0619
     48 H          -5.1667    5.7064   -0.5557 H       1  UNL1        0.0625
     49 H          -6.3058    9.4164   -1.5697 H       1  UNL1        0.1493
     50 H          -6.5687    6.4771   -1.1884 H       1  UNL1        0.0493
     51 H          -8.7948    8.5041   -1.0575 H       1  UNL1        0.0247
     52 H          -8.8844    6.7477   -0.8109 H       1  UNL1        0.0247
     53 H          -8.0133    7.7607    0.3486 H       1  UNL1        0.0247
     54 H          -6.2554    7.2362   -3.5537 H       1  UNL1        0.0247
     55 H          -7.7639    6.3715   -3.2224 H       1  UNL1        0.0247
     56 H          -7.7701    8.1388   -3.4001 H       1  UNL1        0.0247
     57 H          -2.2820    8.8018    0.2087 H       1  UNL1        0.0658
     58 H          -1.5761    5.6598   -1.0634 H       1  UNL1        0.0684
     59 H          -1.4639    5.2705   -3.3515 H       1  UNL1        0.0262
     60 H          -0.2655    6.4843   -2.8842 H       1  UNL1        0.0262
     61 H           0.2444    4.8372   -3.2963 H       1  UNL1        0.0262
     62 H          -1.4525    3.3894   -0.1181 H       1  UNL1        0.0496
     63 H          -2.0481    3.3491   -1.7594 H       1  UNL1        0.0496
@<TRIPOS>BOND
     1     1     2    1
     2     2     3   ar
     3     3     4   ar
     4     4     5   ar
     5     5     6   ar
     6     6     7   ar
     7     7     8   ar
     8     8     9   ar
     9     9    10    1
    10    10    11    1
    11    11    12    1
    12    12    13    1
    13    13    14    1
    14    14    15    2
    15    15    16    1
    16    16    17    3
    17    14    18    1
    18    18    19    1
    19    19    20   ar
    20    20    21   ar
    21    21    22   ar
    22    22    23   ar
    23    23    24    1
    24    24    25    2
    25    24    26   am
    26    26    27    1
    27    27    28    1
    28    27    29    1
    29    23    30   ar
    30    19    30   ar
    31    13    31    1
    32    31    32    1
    33    31    33    1
    34    10    33    1
    35     9    34   ar
    36     2    34   ar
    37     5    34   ar
    38     1    35    1
    39     1    36    1
    40     1    37    1
    41     3    38    1
    42     4    39    1
    43     7    40    1
    44    11    41    1
    45    11    42    1
    46    12    43    1
    47    12    44    1
    48    18    45    1
    49    20    46    1
    50    21    47    1
    51    22    48    1
    52    26    49    1
    53    27    50    1
    54    28    51    1
    55    28    52    1
    56    28    53    1
    57    29    54    1
    58    29    55    1
    59    29    56    1
    60    30    57    1
    61    31    58    1
    62    32    59    1
    63    32    60    1
    64    32    61    1
    65    33    62    1
    66    33    63    1
@<TRIPOS>MOLECULE
mol_CHEMBL3715588_7
 63 66 0 0 0
SMALL
GASTEIGER

@<TRIPOS>ATOM
      1 C           0.8668   -0.3010    0.0435 C.3     1  UNL1       -0.0376
      2 C           0.4732    0.6884    1.0790 C.ar    1  UNL1       -0.0206
      3 C          -0.0949    0.3863    2.3055 C.ar    1  UNL1        0.0071
      4 N          -0.2354    1.5505    3.0106 N.ar    1  UNL1       -0.3454
      5 C           0.2402    2.5971    2.2737 C.ar    1  UNL1        0.1434
      6 N           0.2996    3.8594    2.7192 N.ar    1  UNL1       -0.2178
      7 C           0.8565    4.6679    1.8074 C.ar    1  UNL1        0.1204
      8 N           1.3011    4.3503    0.5775 N.ar    1  UNL1       -0.2200
      9 C           1.1810    3.0697    0.1384 C.ar    1  UNL1        0.1342
     10 N           1.6569    2.7657   -1.1143 N.pl3   1  UNL1       -0.3086
     11 C           0.7888    2.2367   -2.1668 C.3     1  UNL1        0.0426
     12 C           0.7656    3.1389   -3.4247 C.3     1  UNL1        0.0765
     13 N           2.1398    3.5391   -3.8478 N.pl3   1  UNL1       -0.2183
     14 C           2.5918    3.2503   -5.1434 C.cat   1  UNL1        0.3883
     15 N           1.7125    2.7547   -5.9848 N.2     1  UNL1        0.0068
     16 C           2.0792    2.4807   -7.2365 C.1     1  UNL1        0.2951
     17 N           2.4354    2.2701   -8.3222 N.1     1  UNL1       -0.1505
     18 N           3.8855    3.5456   -5.5409 N.pl3   1  UNL1       -0.2052
     19 C           5.0668    3.6856   -4.7969 C.ar    1  UNL1        0.0924
     20 C           5.3892    2.7975   -3.7731 C.ar    1  UNL1       -0.0252
     21 C           6.2342    3.2146   -2.7556 C.ar    1  UNL1       -0.0580
     22 C           6.8122    4.4860   -2.8049 C.ar    1  UNL1       -0.0494
     23 C           6.6914    5.3048   -3.9288 C.ar    1  UNL1        0.0398
     24 C           7.3607    6.6265   -4.1605 C.2     1  UNL1        0.2444
     25 O           7.1220    7.2234   -5.2156 O.2     1  UNL1       -0.2702
     26 N           8.2522    7.2454   -3.3244 N.am    1  UNL1       -0.3090
     27 C           8.7552    7.0103   -1.9789 C.3     1  UNL1        0.0178
     28 C          10.2582    6.7693   -1.9921 C.3     1  UNL1       -0.0469
     29 C           8.3497    8.1584   -1.0637 C.3     1  UNL1       -0.0469
     30 C           5.8077    4.8717   -4.9353 C.ar    1  UNL1       -0.0131
     31 C           2.8443    4.2419   -2.7445 C.3     1  UNL1        0.0845
     32 C           2.2233    5.5947   -2.4006 C.3     1  UNL1       -0.0315
     33 C           2.9516    3.3048   -1.5157 C.3     1  UNL1        0.0452
     34 C           0.6522    2.1161    1.0378 C.ar    1  UNL1        0.0614
     35 H           0.2528   -0.1882   -0.8531 H       1  UNL1        0.0278
     36 H           0.7344   -1.3261    0.4052 H       1  UNL1        0.0278
     37 H           1.9210   -0.1774   -0.2253 H       1  UNL1        0.0278
     38 H          -0.3824   -0.5609    2.7432 H       1  UNL1        0.0810
     39 H          -0.5923    1.6437    3.9503 H       1  UNL1        0.1668
     40 H           0.9679    5.7083    2.0968 H       1  UNL1        0.1048
     41 H           1.1667    1.2516   -2.4619 H       1  UNL1        0.0493
     42 H          -0.2412    2.1051   -1.8133 H       1  UNL1        0.0493
     43 H           0.2219    2.6029   -4.2091 H       1  UNL1        0.0650
     44 H           0.1773    4.0419   -3.2274 H       1  UNL1        0.0650
     45 H           4.0361    3.7060   -6.5319 H       1  UNL1        0.2512
     46 H           4.8690    1.8471   -3.6868 H       1  UNL1        0.0650
     47 H           6.3677    2.5977   -1.8698 H       1  UNL1        0.0619
     48 H           7.3082    4.7758   -1.9008 H       1  UNL1        0.0625
     49 H           8.5919    8.0938   -3.7663 H       1  UNL1        0.1493
     50 H           8.3143    6.1323   -1.5477 H       1  UNL1        0.0493
     51 H          10.8112    7.6672   -2.2836 H       1  UNL1        0.0247
     52 H          10.6018    6.4595   -0.9992 H       1  UNL1        0.0247
     53 H          10.5155    5.9710   -2.6978 H       1  UNL1        0.0247
     54 H           7.2747    8.3566   -1.1496 H       1  UNL1        0.0247
     55 H           8.5598    7.9064   -0.0191 H       1  UNL1        0.0247
     56 H           8.8819    9.0811   -1.3126 H       1  UNL1        0.0247
     57 H           5.5997    5.5236   -5.7842 H       1  UNL1        0.0658
     58 H           3.8461    4.5280   -3.0173 H       1  UNL1        0.0684
     59 H           2.8290    6.0930   -1.6335 H       1  UNL1        0.0262
     60 H           2.2109    6.2418   -3.2835 H       1  UNL1        0.0262
     61 H           1.2049    5.5207   -2.0154 H       1  UNL1        0.0262
     62 H           3.5650    2.4345   -1.7743 H       1  UNL1        0.0496
     63 H           3.4790    3.8031   -0.6926 H       1  UNL1        0.0496
@<TRIPOS>BOND
     1     1     2    1
     2     2     3   ar
     3     3     4   ar
     4     4     5   ar
     5     5     6   ar
     6     6     7   ar
     7     7     8   ar
     8     8     9   ar
     9     9    10    1
    10    10    11    1
    11    11    12    1
    12    12    13    1
    13    13    14    1
    14    14    15    2
    15    15    16    1
    16    16    17    3
    17    14    18    1
    18    18    19    1
    19    19    20   ar
    20    20    21   ar
    21    21    22   ar
    22    22    23   ar
    23    23    24    1
    24    24    25    2
    25    24    26   am
    26    26    27    1
    27    27    28    1
    28    27    29    1
    29    23    30   ar
    30    19    30   ar
    31    13    31    1
    32    31    32    1
    33    31    33    1
    34    10    33    1
    35     9    34   ar
    36     2    34   ar
    37     5    34   ar
    38     1    35    1
    39     1    36    1
    40     1    37    1
    41     3    38    1
    42     4    39    1
    43     7    40    1
    44    11    41    1
    45    11    42    1
    46    12    43    1
    47    12    44    1
    48    18    45    1
    49    20    46    1
    50    21    47    1
    51    22    48    1
    52    26    49    1
    53    27    50    1
    54    28    51    1
    55    28    52    1
    56    28    53    1
    57    29    54    1
    58    29    55    1
    59    29    56    1
    60    30    57    1
    61    31    58    1
    62    32    59    1
    63    32    60    1
    64    32    61    1
    65    33    62    1
    66    33    63    1
@<TRIPOS>MOLECULE
mol_CHEMBL3719354_8
 63 66 0 0 0
SMALL
GASTEIGER

@<TRIPOS>ATOM
      1 C           0.8974   -0.1097    0.2419 C.3     1  UNL1       -0.0376
      2 C           0.5351    1.2595    0.6886 C.ar    1  UNL1       -0.0206
      3 C          -0.3041    1.5612    1.7482 C.ar    1  UNL1        0.0071
      4 N          -0.3292    2.9206    1.9006 N.ar    1  UNL1       -0.3454
      5 C           0.4823    3.5047    0.9708 C.ar    1  UNL1        0.1434
      6 N           0.7146    4.8226    0.9052 N.ar    1  UNL1       -0.2178
      7 C           1.5863    5.1116   -0.0703 C.ar    1  UNL1        0.1204
      8 N           2.1794    4.2639   -0.9306 N.ar    1  UNL1       -0.2200
      9 C           1.8839    2.9380   -0.8686 C.ar    1  UNL1        0.1342
     10 N           2.5076    2.0993   -1.7587 N.pl3   1  UNL1       -0.3086
     11 C           1.7739    1.2062   -2.6537 C.3     1  UNL1        0.0426
     12 C           2.1746    1.4020   -4.1363 C.3     1  UNL1        0.0765
     13 N           3.6565    1.4414   -4.3128 N.pl3   1  UNL1       -0.2183
     14 C           4.2849    0.5416   -5.1851 C.cat   1  UNL1        0.3883
     15 N           3.5029   -0.2107   -5.9271 N.2     1  UNL1        0.0068
     16 C           4.0400   -1.0690   -6.7937 C.1     1  UNL1        0.2951
     17 N           4.5497   -1.7921   -7.5468 N.1     1  UNL1       -0.1505
     18 N           5.6630    0.4951   -5.3151 N.pl3   1  UNL1       -0.2052
     19 C           6.6856    0.9160   -4.4533 C.ar    1  UNL1        0.0924
     20 C           6.6665    0.6056   -3.0952 C.ar    1  UNL1       -0.0252
     21 C           7.3764    1.4018   -2.2081 C.ar    1  UNL1       -0.0580
     22 C           8.1611    2.4563   -2.6863 C.ar    1  UNL1       -0.0494
     23 C           8.3645    2.6593   -4.0527 C.ar    1  UNL1        0.0398
     24 C           9.2573    3.6778   -4.6965 C.2     1  UNL1        0.2444
     25 O           9.3203    3.7006   -5.9303 O.2     1  UNL1       -0.2702
     26 N          10.0476    4.5928   -4.0535 N.am    1  UNL1       -0.3090
     27 C          10.2412    5.0167   -2.6750 C.3     1  UNL1        0.0178
     28 C          11.6642    4.7283   -2.2158 C.3     1  UNL1       -0.0469
     29 C           9.8597    6.4833   -2.5214 C.3     1  UNL1       -0.0469
     30 C           7.6171    1.8528   -4.9315 C.ar    1  UNL1       -0.0131
     31 C           4.2549    2.5192   -3.4831 C.3     1  UNL1        0.0845
     32 C           3.8481    3.9218   -3.9319 C.3     1  UNL1       -0.0315
     33 C           3.9381    2.2626   -1.9898 C.3     1  UNL1        0.0452
     34 C           1.0107    2.5102    0.1576 C.ar    1  UNL1        0.0614
     35 H           0.3743   -0.3614   -0.6847 H       1  UNL1        0.0278
     36 H           0.6217   -0.8565    0.9937 H       1  UNL1        0.0278
     37 H           1.9768   -0.1924    0.0797 H       1  UNL1        0.0278
     38 H          -0.8601    0.9209    2.4207 H       1  UNL1        0.0810
     39 H          -0.8295    3.4359    2.6100 H       1  UNL1        0.1668
     40 H           1.8506    6.1589   -0.1791 H       1  UNL1        0.1048
     41 H           1.9985    0.1711   -2.3751 H       1  UNL1        0.0493
     42 H           0.6901    1.3496   -2.5666 H       1  UNL1        0.0493
     43 H           1.7008    0.6035   -4.7159 H       1  UNL1        0.0650
     44 H           1.7469    2.3349   -4.5202 H       1  UNL1        0.0650
     45 H           6.0280    0.1387   -6.1930 H       1  UNL1        0.2512
     46 H           5.9917   -0.1575   -2.7160 H       1  UNL1        0.0650
     47 H           7.2508    1.2689   -1.1358 H       1  UNL1        0.0619
     48 H           8.5535    3.0934   -1.9193 H       1  UNL1        0.0625
     49 H          10.5875    5.1093   -4.7406 H       1  UNL1        0.1493
     50 H           9.5868    4.4840   -2.0110 H       1  UNL1        0.0493
     51 H          12.3946    5.3469   -2.7464 H       1  UNL1        0.0247
     52 H          11.7650    4.9209   -1.1424 H       1  UNL1        0.0247
     53 H          11.9232    3.6779   -2.3926 H       1  UNL1        0.0247
     54 H           8.8633    6.6658   -2.9412 H       1  UNL1        0.0247
     55 H           9.8314    6.7606   -1.4625 H       1  UNL1        0.0247
     56 H          10.5662    7.1419   -3.0347 H       1  UNL1        0.0247
     57 H           7.6708    2.0350   -6.0052 H       1  UNL1        0.0658
     58 H           5.3255    2.5639   -3.5805 H       1  UNL1        0.0684
     59 H           4.3847    4.6686   -3.3334 H       1  UNL1        0.0262
     60 H           4.1217    4.0797   -4.9800 H       1  UNL1        0.0262
     61 H           2.7809    4.1212   -3.8197 H       1  UNL1        0.0262
     62 H           4.4043    1.3223   -1.6731 H       1  UNL1        0.0496
     63 H           4.3864    3.0426   -1.3618 H       1  UNL1        0.0496
@<TRIPOS>BOND
     1     1     2    1
     2     2     3   ar
     3     3     4   ar
     4     4     5   ar
     5     5     6   ar
     6     6     7   ar
     7     7     8   ar
     8     8     9   ar
     9     9    10    1
    10    10    11    1
    11    11    12    1
    12    12    13    1
    13    13    14    1
    14    14    15    2
    15    15    16    1
    16    16    17    3
    17    14    18    1
    18    18    19    1
    19    19    20   ar
    20    20    21   ar
    21    21    22   ar
    22    22    23   ar
    23    23    24    1
    24    24    25    2
    25    24    26   am
    26    26    27    1
    27    27    28    1
    28    27    29    1
    29    23    30   ar
    30    19    30   ar
    31    13    31    1
    32    31    32    1
    33    31    33    1
    34    10    33    1
    35     9    34   ar
    36     2    34   ar
    37     5    34   ar
    38     1    35    1
    39     1    36    1
    40     1    37    1
    41     3    38    1
    42     4    39    1
    43     7    40    1
    44    11    41    1
    45    11    42    1
    46    12    43    1
    47    12    44    1
    48    18    45    1
    49    20    46    1
    50    21    47    1
    51    22    48    1
    52    26    49    1
    53    27    50    1
    54    28    51    1
    55    28    52    1
    56    28    53    1
    57    29    54    1
    58    29    55    1
    59    29    56    1
    60    30    57    1
    61    31    58    1
    62    32    59    1
    63    32    60    1
    64    32    61    1
    65    33    62    1
    66    33    63    1
@<TRIPOS>MOLECULE
mol_CHEMBL3715974_9
 63 66 0 0 0
SMALL
GASTEIGER

@<TRIPOS>ATOM
      1 C           1.0969   -0.1017    0.2009 C.3     1  UNL1       -0.0376
      2 C           0.6255   -1.3194   -0.5059 C.ar    1  UNL1       -0.0206
      3 C           1.0663   -2.5966   -0.1952 C.ar    1  UNL1        0.0071
      4 N           0.3777   -3.4882   -0.9656 N.ar    1  UNL1       -0.3454
      5 C          -0.5047   -2.8213   -1.7644 C.ar    1  UNL1        0.1434
      6 N          -1.3600   -3.4410   -2.5882 N.ar    1  UNL1       -0.2178
      7 C          -2.1462   -2.5632   -3.2198 C.ar    1  UNL1        0.1204
      8 N          -2.1356   -1.2230   -3.1175 N.ar    1  UNL1       -0.2200
      9 C          -1.2278   -0.6164   -2.3032 C.ar    1  UNL1        0.1342
     10 N          -1.2779    0.7559   -2.2195 N.pl3   1  UNL1       -0.3086
     11 C          -0.1357    1.6084   -2.5550 C.3     1  UNL1        0.0426
     12 C          -0.4613    2.6242   -3.6736 C.3     1  UNL1        0.0765
     13 N          -1.7360    3.3484   -3.3953 N.pl3   1  UNL1       -0.2183
     14 C          -1.7374    4.7429   -3.2448 C.cat   1  UNL1        0.3883
     15 N          -0.6091    5.3693   -3.4926 N.2     1  UNL1        0.0068
     16 C          -0.5557    6.6976   -3.3956 C.1     1  UNL1        0.2951
     17 N          -0.5545    7.8564   -3.3164 N.1     1  UNL1       -0.1505
     18 N          -2.8951    5.4373   -2.9350 N.pl3   1  UNL1       -0.2052
     19 C          -4.0481    5.0451   -2.2383 C.ar    1  UNL1        0.0924
     20 C          -3.9708    4.2722   -1.0821 C.ar    1  UNL1       -0.0252
     21 C          -5.0525    3.4827   -0.7222 C.ar    1  UNL1       -0.0580
     22 C          -6.2300    3.5326   -1.4714 C.ar    1  UNL1       -0.0494
     23 C          -6.4226    4.4843   -2.4732 C.ar    1  UNL1        0.0398
     24 C          -7.6860    4.7451   -3.2369 C.2     1  UNL1        0.2444
     25 O          -7.6603    5.5922   -4.1356 O.2     1  UNL1       -0.2702
     26 N          -8.9045    4.1589   -3.0130 N.am    1  UNL1       -0.3090
     27 C          -9.3991    3.0741   -2.1777 C.3     1  UNL1        0.0178
     28 C         -10.4561    3.5676   -1.2005 C.3     1  UNL1       -0.0469
     29 C          -9.8924    1.9305   -3.0548 C.3     1  UNL1       -0.0469
     30 C          -5.2993    5.2457   -2.8453 C.ar    1  UNL1       -0.0131
     31 C          -2.8634    2.3889   -3.2801 C.3     1  UNL1        0.0845
     32 C          -3.1810    1.6806   -4.5968 C.3     1  UNL1       -0.0315
     33 C          -2.5902    1.3947   -2.1203 C.3     1  UNL1        0.0452
     34 C          -0.3652   -1.4530   -1.5486 C.ar    1  UNL1        0.0614
     35 H           0.7625   -0.1200    1.2434 H       1  UNL1        0.0278
     36 H           0.7233    0.8172   -0.2375 H       1  UNL1        0.0278
     37 H           2.1911   -0.0556    0.1936 H       1  UNL1        0.0278
     38 H           1.7911   -2.9394    0.5320 H       1  UNL1        0.0810
     39 H           0.4583   -4.4941   -0.9380 H       1  UNL1        0.1668
     40 H          -2.8864   -2.9833   -3.8935 H       1  UNL1        0.1048
     41 H           0.1379    2.1879   -1.6674 H       1  UNL1        0.0493
     42 H           0.7371    1.0159   -2.8538 H       1  UNL1        0.0493
     43 H           0.3944    3.2990   -3.7747 H       1  UNL1        0.0650
     44 H          -0.5408    2.1110   -4.6378 H       1  UNL1        0.0650
     45 H          -2.9485    6.4016   -3.2480 H       1  UNL1        0.2512
     46 H          -3.0258    4.1638   -0.5565 H       1  UNL1        0.0650
     47 H          -4.9522    2.7484    0.0737 H       1  UNL1        0.0619
     48 H          -6.9298    2.7543   -1.2422 H       1  UNL1        0.0625
     49 H          -9.5951    4.5730   -3.6310 H       1  UNL1        0.1493
     50 H          -8.6167    2.6631   -1.5701 H       1  UNL1        0.0493
     51 H         -11.3668    3.8895   -1.7132 H       1  UNL1        0.0247
     52 H         -10.7186    2.7718   -0.4947 H       1  UNL1        0.0247
     53 H         -10.0762    4.4155   -0.6188 H       1  UNL1        0.0247
     54 H          -9.1368    1.6656   -3.8042 H       1  UNL1        0.0247
     55 H         -10.0883    1.0397   -2.4493 H       1  UNL1        0.0247
     56 H         -10.8106    2.1980   -3.5860 H       1  UNL1        0.0247
     57 H          -5.3674    5.9208   -3.6987 H       1  UNL1        0.0658
     58 H          -3.7978    2.8840   -3.0719 H       1  UNL1        0.0684
     59 H          -4.0807    1.0647   -4.4765 H       1  UNL1        0.0262
     60 H          -3.3857    2.4148   -5.3830 H       1  UNL1        0.0262
     61 H          -2.3806    1.0228   -4.9402 H       1  UNL1        0.0262
     62 H          -2.5787    1.9381   -1.1695 H       1  UNL1        0.0496
     63 H          -3.4124    0.6728   -2.0349 H       1  UNL1        0.0496
@<TRIPOS>BOND
     1     1     2    1
     2     2     3   ar
     3     3     4   ar
     4     4     5   ar
     5     5     6   ar
     6     6     7   ar
     7     7     8   ar
     8     8     9   ar
     9     9    10    1
    10    10    11    1
    11    11    12    1
    12    12    13    1
    13    13    14    1
    14    14    15    2
    15    15    16    1
    16    16    17    3
    17    14    18    1
    18    18    19    1
    19    19    20   ar
    20    20    21   ar
    21    21    22   ar
    22    22    23   ar
    23    23    24    1
    24    24    25    2
    25    24    26   am
    26    26    27    1
    27    27    28    1
    28    27    29    1
    29    23    30   ar
    30    19    30   ar
    31    13    31    1
    32    31    32    1
    33    31    33    1
    34    10    33    1
    35     9    34   ar
    36     2    34   ar
    37     5    34   ar
    38     1    35    1
    39     1    36    1
    40     1    37    1
    41     3    38    1
    42     4    39    1
    43     7    40    1
    44    11    41    1
    45    11    42    1
    46    12    43    1
    47    12    44    1
    48    18    45    1
    49    20    46    1
    50    21    47    1
    51    22    48    1
    52    26    49    1
    53    27    50    1
    54    28    51    1
    55    28    52    1
    56    28    53    1
    57    29    54    1
    58    29    55    1
    59    29    56    1
    60    30    57    1
    61    31    58    1
    62    32    59    1
    63    32    60    1
    64    32    61    1
    65    33    62    1
    66    33    63    1
@<TRIPOS>MOLECULE
mol_CHEMBL3716162_10
 63 66 0 0 0
SMALL
GASTEIGER

@<TRIPOS>ATOM
      1 C           1.1115   -0.2062    0.0201 C.3     1  UNL1       -0.0376
      2 C           0.5103   -0.5192    1.3418 C.ar    1  UNL1       -0.0206
      3 C           0.4911   -1.7875    1.9006 C.ar    1  UNL1        0.0071
      4 N          -0.0338   -1.6944    3.1586 N.ar    1  UNL1       -0.3454
      5 C          -0.3483   -0.3947    3.4314 C.ar    1  UNL1        0.1434
      6 N          -0.8149    0.0202    4.6167 N.ar    1  UNL1       -0.2178
      7 C          -0.9961    1.3462    4.6282 C.ar    1  UNL1        0.1204
      8 N          -0.7972    2.2171    3.6230 N.ar    1  UNL1       -0.2200
      9 C          -0.3698    1.7583    2.4156 C.ar    1  UNL1        0.1342
     10 N          -0.1753    2.6814    1.4154 N.pl3   1  UNL1       -0.3086
     11 C          -0.9148    2.6281    0.1521 C.3     1  UNL1        0.0426
     12 C          -1.7117    3.9248   -0.1257 C.3     1  UNL1        0.0765
     13 N          -0.8758    5.1423    0.0903 N.pl3   1  UNL1       -0.2183
     14 C          -0.6638    6.0503   -0.9574 C.cat   1  UNL1        0.3883
     15 N          -1.3335    5.8449   -2.0691 N.2     1  UNL1        0.0068
     16 C          -1.1919    6.6900   -3.0900 C.1     1  UNL1        0.2951
     17 N          -1.0536    7.4578   -3.9507 N.1     1  UNL1       -0.1505
     18 N           0.1490    7.1607   -0.7975 N.pl3   1  UNL1       -0.2052
     19 C           1.2531    7.3801    0.0408 C.ar    1  UNL1        0.0924
     20 C           2.2140    6.3932    0.2479 C.ar    1  UNL1       -0.0252
     21 C           2.9593    6.4085    1.4171 C.ar    1  UNL1       -0.0580
     22 C           2.7971    7.4508    2.3323 C.ar    1  UNL1       -0.0494
     23 C           2.0324    8.5785    2.0326 C.ar    1  UNL1        0.0398
     24 C           1.9029    9.8236    2.8578 C.2     1  UNL1        0.2444
     25 O           1.1376   10.7088    2.4615 O.2     1  UNL1       -0.2702
     26 N           2.5865   10.1077    4.0113 N.am    1  UNL1       -0.3090
     27 C           3.4793    9.3769    4.8993 C.3     1  UNL1        0.0178
     28 C           4.8469   10.0403    4.9745 C.3     1  UNL1       -0.0469
     29 C           2.8274    9.2097    6.2659 C.3     1  UNL1       -0.0469
     30 C           1.2582    8.5232    0.8584 C.ar    1  UNL1       -0.0131
     31 C          -0.3583    5.1795    1.4818 C.3     1  UNL1        0.0845
     32 C          -1.4597    5.3610    2.5254 C.3     1  UNL1       -0.0315
     33 C           0.5136    3.9255    1.7476 C.3     1  UNL1        0.0452
     34 C          -0.0831    0.3759    2.3044 C.ar    1  UNL1        0.0614
     35 H           1.0518    0.8493   -0.2328 H       1  UNL1        0.0278
     36 H           0.6190   -0.7798   -0.7714 H       1  UNL1        0.0278
     37 H           2.1750   -0.4693    0.0230 H       1  UNL1        0.0278
     38 H           0.8411   -2.7376    1.5177 H       1  UNL1        0.0810
     39 H          -0.1390   -2.4474    3.8227 H       1  UNL1        0.1668
     40 H          -1.3429    1.7725    5.5643 H       1  UNL1        0.1048
     41 H          -0.1994    2.5033   -0.6673 H       1  UNL1        0.0493
     42 H          -1.6034    1.7750    0.1235 H       1  UNL1        0.0493
     43 H          -2.1103    3.8618   -1.1432 H       1  UNL1        0.0650
     44 H          -2.5900    3.9729    0.5270 H       1  UNL1        0.0650
     45 H          -0.0577    7.9682   -1.3770 H       1  UNL1        0.2512
     46 H           2.2712    5.5349   -0.4163 H       1  UNL1        0.0650
     47 H           3.5888    5.5599    1.6748 H       1  UNL1        0.0619
     48 H           3.2639    7.2778    3.2809 H       1  UNL1        0.0625
     49 H           2.3525   11.0468    4.3174 H       1  UNL1        0.1493
     50 H           3.6597    8.3833    4.5382 H       1  UNL1        0.0493
     51 H           4.7991   11.0184    5.4613 H       1  UNL1        0.0247
     52 H           5.5433    9.4078    5.5361 H       1  UNL1        0.0247
     53 H           5.2623   10.1813    3.9700 H       1  UNL1        0.0247
     54 H           1.8102    8.8137    6.1618 H       1  UNL1        0.0247
     55 H           3.3985    8.5051    6.8792 H       1  UNL1        0.0247
     56 H           2.7628   10.1620    6.8006 H       1  UNL1        0.0247
     57 H           0.5585    9.3300    0.6386 H       1  UNL1        0.0658
     58 H           0.2558    6.0462    1.6639 H       1  UNL1        0.0684
     59 H          -1.0102    5.4711    3.5200 H       1  UNL1        0.0262
     60 H          -2.0321    6.2712    2.3187 H       1  UNL1        0.0262
     61 H          -2.1553    4.5213    2.5738 H       1  UNL1        0.0262
     62 H           1.3968    3.9510    1.1006 H       1  UNL1        0.0496
     63 H           0.9007    3.9377    2.7744 H       1  UNL1        0.0496
@<TRIPOS>BOND
     1     1     2    1
     2     2     3   ar
     3     3     4   ar
     4     4     5   ar
     5     5     6   ar
     6     6     7   ar
     7     7     8   ar
     8     8     9   ar
     9     9    10    1
    10    10    11    1
    11    11    12    1
    12    12    13    1
    13    13    14    1
    14    14    15    2
    15    15    16    1
    16    16    17    3
    17    14    18    1
    18    18    19    1
    19    19    20   ar
    20    20    21   ar
    21    21    22   ar
    22    22    23   ar
    23    23    24    1
    24    24    25    2
    25    24    26   am
    26    26    27    1
    27    27    28    1
    28    27    29    1
    29    23    30   ar
    30    19    30   ar
    31    13    31    1
    32    31    32    1
    33    31    33    1
    34    10    33    1
    35     9    34   ar
    36     2    34   ar
    37     5    34   ar
    38     1    35    1
    39     1    36    1
    40     1    37    1
    41     3    38    1
    42     4    39    1
    43     7    40    1
    44    11    41    1
    45    11    42    1
    46    12    43    1
    47    12    44    1
    48    18    45    1
    49    20    46    1
    50    21    47    1
    51    22    48    1
    52    26    49    1
    53    27    50    1
    54    28    51    1
    55    28    52    1
    56    28    53    1
    57    29    54    1
    58    29    55    1
    59    29    56    1
    60    30    57    1
    61    31    58    1
    62    32    59    1
    63    32    60    1
    64    32    61    1
    65    33    62    1
    66    33    63    1
@<TRIPOS>MOLECULE
mol_CHEMBL3715037_11
 63 66 0 0 0
SMALL
GASTEIGER

@<TRIPOS>ATOM
      1 C           1.0392   -0.2196   -0.0216 C.3     1  UNL1       -0.0376
      2 C           0.4623   -0.0105    1.3310 C.ar    1  UNL1       -0.0206
      3 C           0.1456   -1.0269    2.2179 C.ar    1  UNL1        0.0071
      4 N          -0.2868   -0.4598    3.3838 N.ar    1  UNL1       -0.3454
      5 C          -0.2451    0.9004    3.2785 C.ar    1  UNL1        0.1434
      6 N          -0.5549    1.7305    4.2833 N.ar    1  UNL1       -0.2178
      7 C          -0.3785    3.0086    3.9270 C.ar    1  UNL1        0.1204
      8 N           0.0329    3.4877    2.7395 N.ar    1  UNL1       -0.2200
      9 C           0.2986    2.6215    1.7247 C.ar    1  UNL1        0.1342
     10 N           0.7417    3.1471    0.5337 N.pl3   1  UNL1       -0.3086
     11 C           0.0059    2.9599   -0.7175 C.3     1  UNL1        0.0426
     12 C          -0.4379    4.2983   -1.3527 C.3     1  UNL1        0.0765
     13 N           0.6860    5.2771   -1.4113 N.pl3   1  UNL1       -0.2183
     14 C           1.1025    5.8004   -2.6440 C.cat   1  UNL1        0.3883
     15 N           0.3767    5.4965   -3.6964 N.2     1  UNL1        0.0068
     16 C           0.7101    5.9838   -4.8913 C.1     1  UNL1        0.2951
     17 N           1.0244    6.4407   -5.9121 N.1     1  UNL1       -0.1505
     18 N           2.1811    6.6642   -2.7354 N.pl3   1  UNL1       -0.2052
     19 C           3.3164    6.8058   -1.9232 C.ar    1  UNL1        0.0924
     20 C           3.9952    5.6959   -1.4256 C.ar    1  UNL1       -0.0252
     21 C           4.7413    5.8234   -0.2639 C.ar    1  UNL1       -0.0580
     22 C           4.8686    7.0723    0.3487 C.ar    1  UNL1       -0.0494
     23 C           4.4062    8.2398   -0.2601 C.ar    1  UNL1        0.0398
     24 C           4.6042    9.6466    0.2192 C.2     1  UNL1        0.2444
     25 O           4.0887   10.5620   -0.4307 O.2     1  UNL1       -0.2702
     26 N           5.3414   10.0384    1.3059 N.am    1  UNL1       -0.3090
     27 C           6.0225    9.3626    2.4005 C.3     1  UNL1        0.0178
     28 C           7.5157    9.6566    2.3836 C.3     1  UNL1       -0.0469
     29 C           5.3631    9.7256    3.7247 C.3     1  UNL1       -0.0469
     30 C           3.6253    8.0810   -1.4202 C.ar    1  UNL1       -0.0131
     31 C           1.2193    5.5402   -0.0499 C.3     1  UNL1        0.0845
     32 C           0.2239    6.2689    0.8519 C.3     1  UNL1       -0.0315
     33 C           1.7356    4.2177    0.5753 C.3     1  UNL1        0.0452
     34 C           0.1829    1.2368    1.9992 C.ar    1  UNL1        0.0614
     35 H           0.4922    0.3396   -0.7801 H       1  UNL1        0.0278
     36 H           0.9869   -1.2749   -0.3110 H       1  UNL1        0.0278
     37 H           2.0910    0.0828   -0.0390 H       1  UNL1        0.0278
     38 H           0.2185   -2.1025    2.1220 H       1  UNL1        0.0810
     39 H          -0.5600   -0.9483    4.2239 H       1  UNL1        0.1668
     40 H          -0.5882    3.7505    4.6911 H       1  UNL1        0.1048
     41 H           0.6664    2.4540   -1.4303 H       1  UNL1        0.0493
     42 H          -0.8806    2.3301   -0.5751 H       1  UNL1        0.0493
     43 H          -0.8588    4.0783   -2.3388 H       1  UNL1        0.0650
     44 H          -1.2620    4.7329   -0.7764 H       1  UNL1        0.0650
     45 H           2.1819    7.3178   -3.5122 H       1  UNL1        0.2512
     46 H           3.8186    4.7099   -1.8473 H       1  UNL1        0.0650
     47 H           5.1387    4.9395    0.2297 H       1  UNL1        0.0619
     48 H           5.3018    7.0369    1.3277 H       1  UNL1        0.0625
     49 H           5.3563   11.0523    1.3529 H       1  UNL1        0.1493
     50 H           5.9329    8.2972    2.3154 H       1  UNL1        0.0493
     51 H           7.7263   10.7069    2.6043 H       1  UNL1        0.0247
     52 H           8.0318    9.0370    3.1251 H       1  UNL1        0.0247
     53 H           7.9432    9.4249    1.4012 H       1  UNL1        0.0247
     54 H           4.2774    9.5836    3.6655 H       1  UNL1        0.0247
     55 H           5.7398    9.0842    4.5282 H       1  UNL1        0.0247
     56 H           5.5503   10.7686    3.9960 H       1  UNL1        0.0247
     57 H           3.1499    8.9526   -1.8708 H       1  UNL1        0.0658
     58 H           2.0440    6.2335   -0.0636 H       1  UNL1        0.0684
     59 H           0.7026    6.5112    1.8088 H       1  UNL1        0.0262
     60 H          -0.0870    7.2117    0.3901 H       1  UNL1        0.0262
     61 H          -0.6706    5.6844    1.0738 H       1  UNL1        0.0262
     62 H           2.5856    3.8485   -0.0086 H       1  UNL1        0.0496
     63 H           2.1282    4.3957    1.5844 H       1  UNL1        0.0496
@<TRIPOS>BOND
     1     1     2    1
     2     2     3   ar
     3     3     4   ar
     4     4     5   ar
     5     5     6   ar
     6     6     7   ar
     7     7     8   ar
     8     8     9   ar
     9     9    10    1
    10    10    11    1
    11    11    12    1
    12    12    13    1
    13    13    14    1
    14    14    15    2
    15    15    16    1
    16    16    17    3
    17    14    18    1
    18    18    19    1
    19    19    20   ar
    20    20    21   ar
    21    21    22   ar
    22    22    23   ar
    23    23    24    1
    24    24    25    2
    25    24    26   am
    26    26    27    1
    27    27    28    1
    28    27    29    1
    29    23    30   ar
    30    19    30   ar
    31    13    31    1
    32    31    32    1
    33    31    33    1
    34    10    33    1
    35     9    34   ar
    36     2    34   ar
    37     5    34   ar
    38     1    35    1
    39     1    36    1
    40     1    37    1
    41     3    38    1
    42     4    39    1
    43     7    40    1
    44    11    41    1
    45    11    42    1
    46    12    43    1
    47    12    44    1
    48    18    45    1
    49    20    46    1
    50    21    47    1
    51    22    48    1
    52    26    49    1
    53    27    50    1
    54    28    51    1
    55    28    52    1
    56    28    53    1
    57    29    54    1
    58    29    55    1
    59    29    56    1
    60    30    57    1
    61    31    58    1
    62    32    59    1
    63    32    60    1
    64    32    61    1
    65    33    62    1
    66    33    63    1
@<TRIPOS>MOLECULE
mol_CHEMBL3718794_12
 63 66 0 0 0
SMALL
GASTEIGER

@<TRIPOS>ATOM
      1 C           1.2225   -0.2961    0.0482 C.3     1  UNL1       -0.0376
      2 C           0.6005   -0.3390    1.3961 C.ar    1  UNL1       -0.0206
      3 C           0.4573   -1.4991    2.1409 C.ar    1  UNL1        0.0071
      4 N          -0.0544   -1.1650    3.3624 N.ar    1  UNL1       -0.3454
      5 C          -0.2359    0.1858    3.4320 C.ar    1  UNL1        0.1434
      6 N          -0.6614    0.8167    4.5344 N.ar    1  UNL1       -0.2178
      7 C          -0.7052    2.1409    4.3479 C.ar    1  UNL1        0.1204
      8 N          -0.4085    2.8291    3.2313 N.ar    1  UNL1       -0.2200
      9 C          -0.0231    2.1569    2.1125 C.ar    1  UNL1        0.1342
     10 N           0.2841    2.9000    0.9960 N.pl3   1  UNL1       -0.3086
     11 C          -0.4629    2.7590   -0.2565 C.3     1  UNL1        0.0426
     12 C          -1.1404    4.0752   -0.7003 C.3     1  UNL1        0.0765
     13 N          -0.1868    5.2212   -0.6505 N.pl3   1  UNL1       -0.2183
     14 C           0.1156    5.9399   -1.8164 C.cat   1  UNL1        0.3883
     15 N          -0.5740    5.6433   -2.8950 N.2     1  UNL1        0.0068
     16 C          -0.3503    6.3119   -4.0261 C.1     1  UNL1        0.2951
     17 N          -0.1373    6.9283   -4.9875 N.1     1  UNL1       -0.1505
     18 N           1.0378    6.9732   -1.8107 N.pl3   1  UNL1       -0.2052
     19 C           2.1539    7.2054   -0.9928 C.ar    1  UNL1        0.0924
     20 C           3.0200    6.1740   -0.6374 C.ar    1  UNL1       -0.0252
     21 C           3.7653    6.2865    0.5263 C.ar    1  UNL1       -0.0580
     22 C           3.7009    7.4581    1.2843 C.ar    1  UNL1       -0.0494
     23 C           3.0360    8.5953    0.8237 C.ar    1  UNL1        0.0398
     24 C           3.0122    9.9492    1.4674 C.2     1  UNL1        0.2444
     25 O           2.3358   10.8358    0.9356 O.2     1  UNL1       -0.2702
     26 N           3.7032   10.3282    2.5884 N.am    1  UNL1       -0.3090
     27 C           4.5152    9.6518    3.5894 C.3     1  UNL1        0.0178
     28 C           5.9379   10.1923    3.5995 C.3     1  UNL1       -0.0469
     29 C           3.8394    9.7402    4.9516 C.3     1  UNL1       -0.0469
     30 C           2.2613    8.4459   -0.3418 C.ar    1  UNL1       -0.0131
     31 C           0.3429    5.3960    0.7259 C.3     1  UNL1        0.0845
     32 C          -0.7272    5.8333    1.7255 C.3     1  UNL1       -0.0315
     33 C           1.0870    4.1090    1.1700 C.3     1  UNL1        0.0452
     34 C           0.1112    0.7492    2.2083 C.ar    1  UNL1        0.0614
     35 H           0.9526    0.5920   -0.5136 H       1  UNL1        0.0278
     36 H           0.9124   -1.1612   -0.5473 H       1  UNL1        0.0278
     37 H           2.3135   -0.3167    0.1384 H       1  UNL1        0.0278
     38 H           0.7090   -2.5262    1.9100 H       1  UNL1        0.0810
     39 H          -0.2350   -1.7948    4.1303 H       1  UNL1        0.1668
     40 H          -1.0139    2.7333    5.2035 H       1  UNL1        0.1048
     41 H           0.2400    2.4772   -1.0472 H       1  UNL1        0.0493
     42 H          -1.2233    1.9718   -0.1875 H       1  UNL1        0.0493
     43 H          -1.5590    3.9173   -1.6992 H       1  UNL1        0.0650
     44 H          -2.0001    4.2927   -0.0575 H       1  UNL1        0.0650
     45 H           0.9145    7.7027   -2.5058 H       1  UNL1        0.2512
     46 H           2.9986    5.2294   -1.1747 H       1  UNL1        0.0650
     47 H           4.3166    5.4298    0.9069 H       1  UNL1        0.0619
     48 H           4.1604    7.3809    2.2488 H       1  UNL1        0.0625
     49 H           3.5518   11.3177    2.7570 H       1  UNL1        0.1493
     50 H           4.6016    8.6041    3.3767 H       1  UNL1        0.0493
     51 H           5.9769   11.2296    3.9442 H       1  UNL1        0.0247
     52 H           6.5688    9.5850    4.2578 H       1  UNL1        0.0247
     53 H           6.3723   10.1532    2.5938 H       1  UNL1        0.0247
     54 H           2.7910    9.4262    4.8822 H       1  UNL1        0.0247
     55 H           4.3380    9.0809    5.6696 H       1  UNL1        0.0247
     56 H           3.8581   10.7605    5.3457 H       1  UNL1        0.0247
     57 H           1.6369    9.2728   -0.6811 H       1  UNL1        0.0658
     58 H           1.0428    6.2126    0.7908 H       1  UNL1        0.0684
     59 H          -0.2623    6.0363    2.6981 H       1  UNL1        0.0262
     60 H          -1.2055    6.7587    1.3881 H       1  UNL1        0.0262
     61 H          -1.5044    5.0842    1.8859 H       1  UNL1        0.0262
     62 H           1.9697    3.9639    0.5383 H       1  UNL1        0.0496
     63 H           1.4727    4.2211    2.1913 H       1  UNL1        0.0496
@<TRIPOS>BOND
     1     1     2    1
     2     2     3   ar
     3     3     4   ar
     4     4     5   ar
     5     5     6   ar
     6     6     7   ar
     7     7     8   ar
     8     8     9   ar
     9     9    10    1
    10    10    11    1
    11    11    12    1
    12    12    13    1
    13    13    14    1
    14    14    15    2
    15    15    16    1
    16    16    17    3
    17    14    18    1
    18    18    19    1
    19    19    20   ar
    20    20    21   ar
    21    21    22   ar
    22    22    23   ar
    23    23    24    1
    24    24    25    2
    25    24    26   am
    26    26    27    1
    27    27    28    1
    28    27    29    1
    29    23    30   ar
    30    19    30   ar
    31    13    31    1
    32    31    32    1
    33    31    33    1
    34    10    33    1
    35     9    34   ar
    36     2    34   ar
    37     5    34   ar
    38     1    35    1
    39     1    36    1
    40     1    37    1
    41     3    38    1
    42     4    39    1
    43     7    40    1
    44    11    41    1
    45    11    42    1
    46    12    43    1
    47    12    44    1
    48    18    45    1
    49    20    46    1
    50    21    47    1
    51    22    48    1
    52    26    49    1
    53    27    50    1
    54    28    51    1
    55    28    52    1
    56    28    53    1
    57    29    54    1
    58    29    55    1
    59    29    56    1
    60    30    57    1
    61    31    58    1
    62    32    59    1
    63    32    60    1
    64    32    61    1
    65    33    62    1
    66    33    63    1
@<TRIPOS>MOLECULE
mol_CHEMBL3356066_13
 63 66 0 0 0
SMALL
GASTEIGER

@<TRIPOS>ATOM
      1 C           1.3693   -0.2059   -0.0639 C.3     1  UNL1       -0.0376
      2 C           0.6519   -1.4940    0.1152 C.ar    1  UNL1       -0.0206
      3 C           1.2035   -2.7376   -0.1436 C.ar    1  UNL1        0.0071
      4 N           0.3057   -3.6919    0.2430 N.ar    1  UNL1       -0.3454
      5 C          -0.8108   -3.0952    0.7537 C.ar    1  UNL1        0.1434
      6 N          -1.8382   -3.7757    1.2785 N.ar    1  UNL1       -0.2178
      7 C          -2.7879   -2.9460    1.7272 C.ar    1  UNL1        0.1204
      8 N          -2.8140   -1.6026    1.6589 N.ar    1  UNL1       -0.2200
      9 C          -1.7856   -0.9403    1.0593 C.ar    1  UNL1        0.1342
     10 N          -1.9321    0.4172    0.8966 N.pl3   1  UNL1       -0.3086
     11 C          -1.5270    1.1162   -0.3189 C.3     1  UNL1        0.0426
     12 C          -2.5504    2.1951   -0.7182 C.3     1  UNL1        0.0765
     13 N          -2.8245    3.1082    0.4263 N.pl3   1  UNL1       -0.2183
     14 C          -2.5149    4.4709    0.3113 C.cat   1  UNL1        0.3883
     15 N          -2.0891    4.8854   -0.8616 N.2     1  UNL1        0.0068
     16 C          -1.8056    6.1736   -1.0499 C.1     1  UNL1        0.2951
     17 N          -1.5839    7.3065   -1.1810 N.1     1  UNL1       -0.1505
     18 N          -2.7211    5.3568    1.3518 N.pl3   1  UNL1       -0.2052
     19 C          -2.8146    5.1429    2.7319 C.ar    1  UNL1        0.0924
     20 C          -1.8783    4.3663    3.4119 C.ar    1  UNL1       -0.0252
     21 C          -2.2256    3.8009    4.6296 C.ar    1  UNL1       -0.0580
     22 C          -3.4765    4.0705    5.1962 C.ar    1  UNL1       -0.0494
     23 C          -4.3560    4.9976    4.6314 C.ar    1  UNL1        0.0398
     24 C          -5.6793    5.4476    5.1746 C.2     1  UNL1        0.2444
     25 O          -6.3058    6.3080    4.5470 O.2     1  UNL1       -0.2702
     26 N          -6.2774    5.0134    6.3268 N.am    1  UNL1       -0.3090
     27 C          -6.0008    3.9851    7.3174 C.3     1  UNL1        0.0178
     28 C          -5.7346    4.6101    8.6803 C.3     1  UNL1       -0.0469
     29 C          -7.1333    2.9674    7.3461 C.3     1  UNL1       -0.0469
     30 C          -3.9876    5.5454    3.3897 C.ar    1  UNL1       -0.0131
     31 C          -3.3774    2.3440    1.5774 C.3     1  UNL1        0.0845
     32 C          -4.7707    1.7782    1.3009 C.3     1  UNL1       -0.0315
     33 C          -2.3851    1.2323    2.0243 C.3     1  UNL1        0.0452
     34 C          -0.6793   -1.7165    0.6274 C.ar    1  UNL1        0.0614
     35 H           1.1578    0.4761    0.7656 H       1  UNL1        0.0278
     36 H           1.0867    0.2650   -1.0094 H       1  UNL1        0.0278
     37 H           2.4535   -0.3592   -0.0830 H       1  UNL1        0.0278
     38 H           2.1722   -3.0171   -0.5373 H       1  UNL1        0.0810
     39 H           0.4385   -4.6918    0.2038 H       1  UNL1        0.1668
     40 H          -3.6470   -3.4151    2.1967 H       1  UNL1        0.1048
     41 H          -0.5695    1.6140   -0.1450 H       1  UNL1        0.0493
     42 H          -1.4202    0.4229   -1.1610 H       1  UNL1        0.0493
     43 H          -2.1656    2.7154   -1.6003 H       1  UNL1        0.0650
     44 H          -3.4872    1.7291   -1.0422 H       1  UNL1        0.0650
     45 H          -2.8718    6.3296    1.1035 H       1  UNL1        0.2512
     46 H          -0.9414    4.0916    2.9345 H       1  UNL1        0.0650
     47 H          -1.5651    3.0779    5.1026 H       1  UNL1        0.0619
     48 H          -3.6949    3.4899    6.0701 H       1  UNL1        0.0625
     49 H          -7.1377    5.5320    6.4736 H       1  UNL1        0.1493
     50 H          -5.1262    3.4207    7.0532 H       1  UNL1        0.0493
     51 H          -6.6325    5.0814    9.0921 H       1  UNL1        0.0247
     52 H          -5.3892    3.8498    9.3886 H       1  UNL1        0.0247
     53 H          -4.9564    5.3791    8.6092 H       1  UNL1        0.0247
     54 H          -7.3481    2.6064    6.3332 H       1  UNL1        0.0247
     55 H          -6.8515    2.1023    7.9553 H       1  UNL1        0.0247
     56 H          -8.0539    3.3952    7.7529 H       1  UNL1        0.0247
     57 H          -4.6770    6.2098    2.8677 H       1  UNL1        0.0658
     58 H          -3.5618    2.9683    2.4335 H       1  UNL1        0.0684
     59 H          -5.1843    1.3533    2.2243 H       1  UNL1        0.0262
     60 H          -5.4480    2.5718    0.9699 H       1  UNL1        0.0262
     61 H          -4.7697    0.9825    0.5530 H       1  UNL1        0.0262
     62 H          -1.4902    1.6954    2.4579 H       1  UNL1        0.0496
     63 H          -2.8382    0.6353    2.8255 H       1  UNL1        0.0496
@<TRIPOS>BOND
     1     1     2    1
     2     2     3   ar
     3     3     4   ar
     4     4     5   ar
     5     5     6   ar
     6     6     7   ar
     7     7     8   ar
     8     8     9   ar
     9     9    10    1
    10    10    11    1
    11    11    12    1
    12    12    13    1
    13    13    14    1
    14    14    15    2
    15    15    16    1
    16    16    17    3
    17    14    18    1
    18    18    19    1
    19    19    20   ar
    20    20    21   ar
    21    21    22   ar
    22    22    23   ar
    23    23    24    1
    24    24    25    2
    25    24    26   am
    26    26    27    1
    27    27    28    1
    28    27    29    1
    29    23    30   ar
    30    19    30   ar
    31    13    31    1
    32    31    32    1
    33    31    33    1
    34    10    33    1
    35     9    34   ar
    36     2    34   ar
    37     5    34   ar
    38     1    35    1
    39     1    36    1
    40     1    37    1
    41     3    38    1
    42     4    39    1
    43     7    40    1
    44    11    41    1
    45    11    42    1
    46    12    43    1
    47    12    44    1
    48    18    45    1
    49    20    46    1
    50    21    47    1
    51    22    48    1
    52    26    49    1
    53    27    50    1
    54    28    51    1
    55    28    52    1
    56    28    53    1
    57    29    54    1
    58    29    55    1
    59    29    56    1
    60    30    57    1
    61    31    58    1
    62    32    59    1
    63    32    60    1
    64    32    61    1
    65    33    62    1
    66    33    63    1
@<TRIPOS>MOLECULE
mol_CHEMBL3716812_14
 63 66 0 0 0
SMALL
GASTEIGER

@<TRIPOS>ATOM
      1 C           1.1085   -0.1504   -0.1701 C.3     1  UNL1       -0.0376
      2 C           0.5659   -1.2488    0.6701 C.ar    1  UNL1       -0.0206
      3 C           0.8437   -2.5934    0.4833 C.ar    1  UNL1        0.0071
      4 N           0.2528   -3.2979    1.4953 N.ar    1  UNL1       -0.3454
      5 C          -0.3962   -2.4406    2.3360 C.ar    1  UNL1        0.1434
      6 N          -1.0124   -2.8274    3.4612 N.ar    1  UNL1       -0.2178
      7 C          -1.5226   -1.7785    4.1182 C.ar    1  UNL1        0.1204
      8 N          -1.4952   -0.4833    3.7577 N.ar    1  UNL1       -0.2200
      9 C          -0.9032   -0.1290    2.5856 C.ar    1  UNL1        0.1342
     10 N          -0.8723    1.2059    2.2629 N.pl3   1  UNL1       -0.3086
     11 C          -1.4783    1.7390    1.0417 C.3     1  UNL1        0.0426
     12 C          -2.5264    2.8452    1.3304 C.3     1  UNL1        0.0765
     13 N          -2.0371    3.8403    2.3306 N.pl3   1  UNL1       -0.2183
     14 C          -2.0112    5.2077    2.0194 C.cat   1  UNL1        0.3883
     15 N          -2.5497    5.5723    0.8781 N.2     1  UNL1        0.0068
     16 C          -2.5671    6.8617    0.5417 C.1     1  UNL1        0.2951
     17 N          -2.5756    7.9965    0.2912 N.1     1  UNL1       -0.1505
     18 N          -1.5087    6.1382    2.9154 N.pl3   1  UNL1       -0.2052
     19 C          -0.5417    6.0047    3.9245 C.ar    1  UNL1        0.0924
     20 C           0.6285    5.2788    3.7120 C.ar    1  UNL1       -0.0252
     21 C           1.2982    4.7367    4.7989 C.ar    1  UNL1       -0.0580
     22 C           0.8410    4.9823    6.0968 C.ar    1  UNL1       -0.0494
     23 C          -0.2017    5.8752    6.3513 C.ar    1  UNL1        0.0398
     24 C          -0.7171    6.3019    7.6936 C.2     1  UNL1        0.2444
     25 O          -1.6348    7.1285    7.7284 O.2     1  UNL1       -0.2702
     26 N          -0.2583    5.8833    8.9151 N.am    1  UNL1       -0.3090
     27 C           0.6915    4.8861    9.3876 C.3     1  UNL1        0.0178
     28 C           1.8534    5.5481   10.1168 C.3     1  UNL1       -0.0469
     29 C          -0.0212    3.8457   10.2421 C.3     1  UNL1       -0.0469
     30 C          -0.8771    6.3993    5.2315 C.ar    1  UNL1       -0.0131
     31 C          -1.6483    3.1664    3.5955 C.3     1  UNL1        0.0845
     32 C          -2.8317    2.5412    4.3316 C.3     1  UNL1       -0.0315
     33 C          -0.5135    2.1543    3.3107 C.3     1  UNL1        0.0452
     34 C          -0.2781   -1.1503    1.8333 C.ar    1  UNL1        0.0614
     35 H           1.0902    0.8095    0.3484 H       1  UNL1        0.0278
     36 H           0.5401   -0.0641   -1.1010 H       1  UNL1        0.0278
     37 H           2.1558   -0.3482   -0.4242 H       1  UNL1        0.0278
     38 H           1.4393   -3.0994   -0.2656 H       1  UNL1        0.0810
     39 H           0.3100   -4.2943    1.6469 H       1  UNL1        0.1668
     40 H          -2.0146   -1.9977    5.0607 H       1  UNL1        0.1048
     41 H          -0.6887    2.1791    0.4233 H       1  UNL1        0.0493
     42 H          -1.9556    0.9478    0.4508 H       1  UNL1        0.0493
     43 H          -2.7944    3.3072    0.3749 H       1  UNL1        0.0650
     44 H          -3.4513    2.3931    1.7057 H       1  UNL1        0.0650
     45 H          -1.8803    7.0812    2.8589 H       1  UNL1        0.2512
     46 H           0.9331    5.0122    2.7031 H       1  UNL1        0.0650
     47 H           2.1192    4.0408    4.6412 H       1  UNL1        0.0619
     48 H           1.3396    4.4087    6.8518 H       1  UNL1        0.0625
     49 H          -0.7506    6.3858    9.6469 H       1  UNL1        0.1493
     50 H           1.1102    4.3322    8.5684 H       1  UNL1        0.0493
     51 H           1.5324    6.0097   11.0559 H       1  UNL1        0.0247
     52 H           2.6308    4.8110   10.3446 H       1  UNL1        0.0247
     53 H           2.3062    6.3304    9.4967 H       1  UNL1        0.0247
     54 H          -0.9004    3.4556    9.7159 H       1  UNL1        0.0247
     55 H           0.6456    3.0017   10.4479 H       1  UNL1        0.0247
     56 H          -0.3572    4.2637   11.1953 H       1  UNL1        0.0247
     57 H          -1.7562    7.0270    5.3801 H       1  UNL1        0.0658
     58 H          -1.2787    3.8595    4.3319 H       1  UNL1        0.0684
     59 H          -2.4921    2.1263    5.2887 H       1  UNL1        0.0262
     60 H          -3.5868    3.3030    4.5513 H       1  UNL1        0.0262
     61 H          -3.3115    1.7331    3.7767 H       1  UNL1        0.0262
     62 H           0.3676    2.6871    2.9365 H       1  UNL1        0.0496
     63 H          -0.1906    1.6655    4.2385 H       1  UNL1        0.0496
@<TRIPOS>BOND
     1     1     2    1
     2     2     3   ar
     3     3     4   ar
     4     4     5   ar
     5     5     6   ar
     6     6     7   ar
     7     7     8   ar
     8     8     9   ar
     9     9    10    1
    10    10    11    1
    11    11    12    1
    12    12    13    1
    13    13    14    1
    14    14    15    2
    15    15    16    1
    16    16    17    3
    17    14    18    1
    18    18    19    1
    19    19    20   ar
    20    20    21   ar
    21    21    22   ar
    22    22    23   ar
    23    23    24    1
    24    24    25    2
    25    24    26   am
    26    26    27    1
    27    27    28    1
    28    27    29    1
    29    23    30   ar
    30    19    30   ar
    31    13    31    1
    32    31    32    1
    33    31    33    1
    34    10    33    1
    35     9    34   ar
    36     2    34   ar
    37     5    34   ar
    38     1    35    1
    39     1    36    1
    40     1    37    1
    41     3    38    1
    42     4    39    1
    43     7    40    1
    44    11    41    1
    45    11    42    1
    46    12    43    1
    47    12    44    1
    48    18    45    1
    49    20    46    1
    50    21    47    1
    51    22    48    1
    52    26    49    1
    53    27    50    1
    54    28    51    1
    55    28    52    1
    56    28    53    1
    57    29    54    1
    58    29    55    1
    59    29    56    1
    60    30    57    1
    61    31    58    1
    62    32    59    1
    63    32    60    1
    64    32    61    1
    65    33    62    1
    66    33    63    1
@<TRIPOS>MOLECULE
mol_CHEMBL3715062_15
 63 66 0 0 0
SMALL
GASTEIGER

@<TRIPOS>ATOM
      1 C           1.0246   -0.2228    0.0897 C.3     1  UNL1       -0.0376
      2 C           0.4697    0.0653    1.4370 C.ar    1  UNL1       -0.0206
      3 C           0.1006   -0.8970    2.3629 C.ar    1  UNL1        0.0071
      4 N          -0.2934   -0.2619    3.5075 N.ar    1  UNL1       -0.3454
      5 C          -0.1759    1.0889    3.3497 C.ar    1  UNL1        0.1434
      6 N          -0.4342    1.9741    4.3216 N.ar    1  UNL1       -0.2178
      7 C          -0.1873    3.2252    3.9145 C.ar    1  UNL1        0.1204
      8 N           0.2465    3.6332    2.7085 N.ar    1  UNL1       -0.2200
      9 C           0.4584    2.7139    1.7285 C.ar    1  UNL1        0.1342
     10 N           0.9264    3.1652    0.5171 N.pl3   1  UNL1       -0.3086
     11 C           0.1859    2.9595   -0.7280 C.3     1  UNL1        0.0426
     12 C          -0.1779    4.2897   -1.4289 C.3     1  UNL1        0.0765
     13 N           0.9980    5.2028   -1.5228 N.pl3   1  UNL1       -0.2183
     14 C           1.4426    5.6545   -2.7738 C.cat   1  UNL1        0.3883
     15 N           0.7016    5.3503   -3.8154 N.2     1  UNL1        0.0068
     16 C           1.0621    5.7714   -5.0274 C.1     1  UNL1        0.2951
     17 N           1.4019    6.1698   -6.0644 N.1     1  UNL1       -0.1505
     18 N           2.5676    6.4531   -2.8957 N.pl3   1  UNL1       -0.2052
     19 C           3.7084    6.5631   -2.0862 C.ar    1  UNL1        0.0924
     20 C           4.3220    5.4377   -1.5410 C.ar    1  UNL1       -0.0252
     21 C           5.0722    5.5699   -0.3825 C.ar    1  UNL1       -0.0580
     22 C           5.2692    6.8335    0.1794 C.ar    1  UNL1       -0.0494
     23 C           4.8751    7.9995   -0.4782 C.ar    1  UNL1        0.0398
     24 C           5.1522    9.4111   -0.0554 C.2     1  UNL1        0.2444
     25 O           4.6906   10.3272   -0.7438 O.2     1  UNL1       -0.2702
     26 N           5.9090    9.8042    1.0172 N.am    1  UNL1       -0.3090
     27 C           6.5490    9.1358    2.1409 C.3     1  UNL1        0.0178
     28 C           8.0566    9.3432    2.1176 C.3     1  UNL1       -0.0469
     29 C           5.9097    9.5895    3.4469 C.3     1  UNL1       -0.0469
     30 C           4.0885    7.8382   -1.6341 C.ar    1  UNL1       -0.0131
     31 C           1.5403    5.4963   -0.1711 C.3     1  UNL1        0.0845
     32 C           0.5832    6.3159    0.6933 C.3     1  UNL1       -0.0315
     33 C           1.9810    4.1763    0.5135 C.3     1  UNL1        0.0452
     34 C           0.2648    1.3504    2.0576 C.ar    1  UNL1        0.0614
     35 H           0.4481    0.2762   -0.6901 H       1  UNL1        0.0278
     36 H           0.9898   -1.2957   -0.1287 H       1  UNL1        0.0278
     37 H           2.0691    0.0988    0.0289 H       1  UNL1        0.0278
     38 H           0.1114   -1.9779    2.3084 H       1  UNL1        0.0810
     39 H          -0.5901   -0.7015    4.3665 H       1  UNL1        0.1668
     40 H          -0.3522    4.0075    4.6487 H       1  UNL1        0.1048
     41 H           0.8175    2.3807   -1.4108 H       1  UNL1        0.0493
     42 H          -0.7367    2.3910   -0.5604 H       1  UNL1        0.0493
     43 H          -0.6038    4.0470   -2.4075 H       1  UNL1        0.0650
     44 H          -0.9804    4.7956   -0.8807 H       1  UNL1        0.0650
     45 H           2.6051    7.0749   -3.6973 H       1  UNL1        0.2512
     46 H           4.0901    4.4468   -1.9229 H       1  UNL1        0.0650
     47 H           5.4177    4.6858    0.1483 H       1  UNL1        0.0619
     48 H           5.6976    6.8135    1.1609 H       1  UNL1        0.0625
     49 H           5.9817   10.8167    1.0233 H       1  UNL1        0.1493
     50 H           6.3988    8.0747    2.0988 H       1  UNL1        0.0493
     51 H           8.3266   10.3879    2.2962 H       1  UNL1        0.0247
     52 H           8.5354    8.7259    2.8856 H       1  UNL1        0.0247
     53 H           8.4715    9.0476    1.1470 H       1  UNL1        0.0247
     54 H           4.8177    9.5075    3.3896 H       1  UNL1        0.0247
     55 H           6.2481    8.9610    4.2771 H       1  UNL1        0.0247
     56 H           6.1559   10.6303    3.6763 H       1  UNL1        0.0247
     57 H           3.6641    8.7164   -2.1215 H       1  UNL1        0.0658
     58 H           2.4019    6.1421   -0.2102 H       1  UNL1        0.0684
     59 H           1.0712    6.5717    1.6420 H       1  UNL1        0.0262
     60 H           0.3265    7.2541    0.1906 H       1  UNL1        0.0262
     61 H          -0.3429    5.7912    0.9342 H       1  UNL1        0.0262
     62 H           2.8083    3.7331   -0.0514 H       1  UNL1        0.0496
     63 H           2.3831    4.3765    1.5146 H       1  UNL1        0.0496
@<TRIPOS>BOND
     1     1     2    1
     2     2     3   ar
     3     3     4   ar
     4     4     5   ar
     5     5     6   ar
     6     6     7   ar
     7     7     8   ar
     8     8     9   ar
     9     9    10    1
    10    10    11    1
    11    11    12    1
    12    12    13    1
    13    13    14    1
    14    14    15    2
    15    15    16    1
    16    16    17    3
    17    14    18    1
    18    18    19    1
    19    19    20   ar
    20    20    21   ar
    21    21    22   ar
    22    22    23   ar
    23    23    24    1
    24    24    25    2
    25    24    26   am
    26    26    27    1
    27    27    28    1
    28    27    29    1
    29    23    30   ar
    30    19    30   ar
    31    13    31    1
    32    31    32    1
    33    31    33    1
    34    10    33    1
    35     9    34   ar
    36     2    34   ar
    37     5    34   ar
    38     1    35    1
    39     1    36    1
    40     1    37    1
    41     3    38    1
    42     4    39    1
    43     7    40    1
    44    11    41    1
    45    11    42    1
    46    12    43    1
    47    12    44    1
    48    18    45    1
    49    20    46    1
    50    21    47    1
    51    22    48    1
    52    26    49    1
    53    27    50    1
    54    28    51    1
    55    28    52    1
    56    28    53    1
    57    29    54    1
    58    29    55    1
    59    29    56    1
    60    30    57    1
    61    31    58    1
    62    32    59    1
    63    32    60    1
    64    32    61    1
    65    33    62    1
    66    33    63    1
@<TRIPOS>MOLECULE
mol_CHEMBL4545883_16
 63 66 0 0 0
SMALL
GASTEIGER

@<TRIPOS>ATOM
      1 C           1.1450   -0.1802   -0.1238 C.3     1  UNL1       -0.0376
      2 C           0.5547   -0.5779    1.1800 C.ar    1  UNL1       -0.0206
      3 C           0.5677   -1.8734    1.6726 C.ar    1  UNL1        0.0071
      4 N           0.0430   -1.8581    2.9342 N.ar    1  UNL1       -0.3454
      5 C          -0.3031   -0.5823    3.2736 C.ar    1  UNL1        0.1434
      6 N          -0.7772   -0.2400    4.4790 N.ar    1  UNL1       -0.2178
      7 C          -0.9913    1.0789    4.5580 C.ar    1  UNL1        0.1204
      8 N          -0.8170    2.0044    3.5980 N.ar    1  UNL1       -0.2200
      9 C          -0.3814    1.6180    2.3685 C.ar    1  UNL1        0.1342
     10 N          -0.2131    2.5948    1.4160 N.pl3   1  UNL1       -0.3086
     11 C          -0.9489    2.5848    0.1496 C.3     1  UNL1        0.0426
     12 C          -1.7733    3.8763   -0.0687 C.3     1  UNL1        0.0765
     13 N          -0.9674    5.1010    0.2117 N.pl3   1  UNL1       -0.2183
     14 C          -0.7794    6.0688   -0.7858 C.cat   1  UNL1        0.3883
     15 N          -1.4452    5.9068   -1.9069 N.2     1  UNL1        0.0068
     16 C          -1.3252    6.8085   -2.8811 C.1     1  UNL1        0.2951
     17 N          -1.2063    7.6243   -3.6996 N.1     1  UNL1       -0.1505
     18 N           0.0063    7.1887   -0.5663 N.pl3   1  UNL1       -0.2052
     19 C           1.1078    7.3886    0.2805 C.ar    1  UNL1        0.0924
     20 C           2.0894    6.4127    0.4365 C.ar    1  UNL1       -0.0252
     21 C           2.8351    6.3829    1.6051 C.ar    1  UNL1       -0.0580
     22 C           2.6521    7.3729    2.5727 C.ar    1  UNL1       -0.0494
     23 C           1.8662    8.4998    2.3301 C.ar    1  UNL1        0.0398
     24 C           1.7152    9.6989    3.2173 C.2     1  UNL1        0.2444
     25 O           0.9296   10.5865    2.8693 O.2     1  UNL1       -0.2702
     26 N           2.4001    9.9393    4.3801 N.am    1  UNL1       -0.3090
     27 C           3.3127    9.1834    5.2261 C.3     1  UNL1        0.0178
     28 C           4.6663    9.8710    5.3307 C.3     1  UNL1       -0.0469
     29 C           2.6707    8.9323    6.5846 C.3     1  UNL1       -0.0469
     30 C           1.0913    8.4887    1.1551 C.ar    1  UNL1       -0.0131
     31 C          -0.4534    5.0804    1.6048 C.3     1  UNL1        0.0845
     32 C          -1.5604    5.1812    2.6534 C.3     1  UNL1       -0.0315
     33 C           0.4480    3.8360    1.8087 C.3     1  UNL1        0.0452
     34 C          -0.0599    0.2510    2.1873 C.ar    1  UNL1        0.0614
     35 H           1.1065    0.8933   -0.2945 H       1  UNL1        0.0278
     36 H           0.6295   -0.6830   -0.9480 H       1  UNL1        0.0278
     37 H           2.2025   -0.4646   -0.1566 H       1  UNL1        0.0278
     38 H           0.9404   -2.7935    1.2412 H       1  UNL1        0.0810
     39 H          -0.0423   -2.6466    3.5588 H       1  UNL1        0.1668
     40 H          -1.3459    1.4486    5.5150 H       1  UNL1        0.1048
     41 H          -0.2300    2.5121   -0.6730 H       1  UNL1        0.0493
     42 H          -1.6198    1.7200    0.0800 H       1  UNL1        0.0493
     43 H          -2.1656    3.8543   -1.0903 H       1  UNL1        0.0650
     44 H          -2.6555    3.8724    0.5807 H       1  UNL1        0.0650
     45 H          -0.2212    8.0210   -1.1011 H       1  UNL1        0.2512
     46 H           2.1633    5.5908   -0.2708 H       1  UNL1        0.0650
     47 H           3.4816    5.5350    1.8192 H       1  UNL1        0.0619
     48 H           3.1198    7.1597    3.5126 H       1  UNL1        0.0625
     49 H           2.1488   10.8568    4.7341 H       1  UNL1        0.1493
     50 H           3.5137    8.2142    4.8132 H       1  UNL1        0.0493
     51 H           4.6002   10.8218    5.8669 H       1  UNL1        0.0247
     52 H           5.3781    9.2254    5.8571 H       1  UNL1        0.0247
     53 H           5.0744   10.0714    4.3333 H       1  UNL1        0.0247
     54 H           1.6614    8.5210    6.4640 H       1  UNL1        0.0247
     55 H           3.2591    8.2093    7.1589 H       1  UNL1        0.0247
     56 H           2.5888    9.8543    7.1677 H       1  UNL1        0.0247
     57 H           0.3752    9.2914    0.9772 H       1  UNL1        0.0658
     58 H           0.1392    5.9515    1.8324 H       1  UNL1        0.0684
     59 H          -1.1151    5.2498    3.6537 H       1  UNL1        0.0262
     60 H          -2.1540    6.0871    2.4929 H       1  UNL1        0.0262
     61 H          -2.2359    4.3239    2.6561 H       1  UNL1        0.0262
     62 H           1.3295    3.9133    1.1635 H       1  UNL1        0.0496
     63 H           0.8359    3.8067    2.8348 H       1  UNL1        0.0496
@<TRIPOS>BOND
     1     1     2    1
     2     2     3   ar
     3     3     4   ar
     4     4     5   ar
     5     5     6   ar
     6     6     7   ar
     7     7     8   ar
     8     8     9   ar
     9     9    10    1
    10    10    11    1
    11    11    12    1
    12    12    13    1
    13    13    14    1
    14    14    15    2
    15    15    16    1
    16    16    17    3
    17    14    18    1
    18    18    19    1
    19    19    20   ar
    20    20    21   ar
    21    21    22   ar
    22    22    23   ar
    23    23    24    1
    24    24    25    2
    25    24    26   am
    26    26    27    1
    27    27    28    1
    28    27    29    1
    29    23    30   ar
    30    19    30   ar
    31    13    31    1
    32    31    32    1
    33    31    33    1
    34    10    33    1
    35     9    34   ar
    36     2    34   ar
    37     5    34   ar
    38     1    35    1
    39     1    36    1
    40     1    37    1
    41     3    38    1
    42     4    39    1
    43     7    40    1
    44    11    41    1
    45    11    42    1
    46    12    43    1
    47    12    44    1
    48    18    45    1
    49    20    46    1
    50    21    47    1
    51    22    48    1
    52    26    49    1
    53    27    50    1
    54    28    51    1
    55    28    52    1
    56    28    53    1
    57    29    54    1
    58    29    55    1
    59    29    56    1
    60    30    57    1
    61    31    58    1
    62    32    59    1
    63    32    60    1
    64    32    61    1
    65    33    62    1
    66    33    63    1
@<TRIPOS>MOLECULE
mol_CHEMBL4448573_17
 63 66 0 0 0
SMALL
GASTEIGER

@<TRIPOS>ATOM
      1 C           1.0408   -0.2438    0.1516 C.3     1  UNL1       -0.0376
      2 C           0.6869   -0.5674   -1.2539 C.ar    1  UNL1       -0.0206
      3 C           0.6999   -1.8392   -1.8032 C.ar    1  UNL1        0.0071
      4 N           0.2568   -1.7529   -3.0939 N.ar    1  UNL1       -0.3454
      5 C          -0.0473   -0.4559   -3.3918 C.ar    1  UNL1        0.1434
      6 N          -0.5553   -0.0637   -4.5679 N.ar    1  UNL1       -0.2178
      7 C          -0.8070    1.2511   -4.5716 C.ar    1  UNL1        0.1204
      8 N          -0.5988    2.1361   -3.5808 N.ar    1  UNL1       -0.2200
      9 C          -0.0431    1.7141   -2.4130 C.ar    1  UNL1        0.1342
     10 N           0.1196    2.6429   -1.4147 N.pl3   1  UNL1       -0.3086
     11 C           1.4092    2.9243   -0.7860 C.3     1  UNL1        0.0426
     12 C           1.7817    4.4270   -0.8565 C.3     1  UNL1        0.0765
     13 N           0.6424    5.3082   -0.4607 N.pl3   1  UNL1       -0.2183
     14 C           0.7959    6.2421    0.5740 C.cat   1  UNL1        0.3883
     15 N           2.0026    6.3867    1.0727 N.2     1  UNL1        0.0068
     16 C           2.2120    7.2754    2.0437 C.1     1  UNL1        0.2951
     17 N           2.3566    8.0708    2.8778 N.1     1  UNL1       -0.1505
     18 N          -0.2616    7.0332    0.9935 N.pl3   1  UNL1       -0.2052
     19 C          -1.6471    6.8053    0.9733 C.ar    1  UNL1        0.0924
     20 C          -2.1810    5.5533    1.2701 C.ar    1  UNL1       -0.0252
     21 C          -3.4169    5.2028    0.7482 C.ar    1  UNL1       -0.0580
     22 C          -4.1456    6.1314    0.0024 C.ar    1  UNL1       -0.0494
     23 C          -3.7564    7.4679   -0.0872 C.ar    1  UNL1        0.0398
     24 C          -4.5301    8.5883   -0.7149 C.2     1  UNL1        0.2444
     25 O          -4.0031    9.7043   -0.7653 O.2     1  UNL1       -0.2702
     26 N          -5.8052    8.5135   -1.2129 N.am    1  UNL1       -0.3090
     27 C          -6.7620    7.4458   -1.4685 C.3     1  UNL1        0.0178
     28 C          -8.0429    7.6478   -0.6721 C.3     1  UNL1       -0.0469
     29 C          -7.0111    7.3233   -2.9665 C.3     1  UNL1       -0.0469
     30 C          -2.4813    7.7896    0.4149 C.ar    1  UNL1       -0.0131
     31 C          -0.5480    5.0441   -1.3093 C.3     1  UNL1        0.0845
     32 C          -0.3431    5.4347   -2.7722 C.3     1  UNL1       -0.0315
     33 C          -0.9787    3.5657   -1.1467 C.3     1  UNL1        0.0452
     34 C           0.2362    0.3334   -2.2835 C.ar    1  UNL1        0.0614
     35 H           0.9085   -1.1174    0.7989 H       1  UNL1        0.0278
     36 H           0.4008    0.5480    0.5498 H       1  UNL1        0.0278
     37 H           2.0865    0.0717    0.2172 H       1  UNL1        0.0278
     38 H           0.9631   -2.7973   -1.3740 H       1  UNL1        0.0810
     39 H           0.1283   -2.5198   -3.7377 H       1  UNL1        0.1668
     40 H          -1.2377    1.6532   -5.4832 H       1  UNL1        0.1048
     41 H           1.3543    2.6389    0.2701 H       1  UNL1        0.0493
     42 H           2.2169    2.3422   -1.2459 H       1  UNL1        0.0493
     43 H           2.6683    4.5793   -0.2330 H       1  UNL1        0.0650
     44 H           2.0921    4.6865   -1.8748 H       1  UNL1        0.0650
     45 H          -0.0278    7.9331    1.4009 H       1  UNL1        0.2512
     46 H          -1.5728    4.8010    1.7655 H       1  UNL1        0.0650
     47 H          -3.7709    4.1772    0.8235 H       1  UNL1        0.0619
     48 H          -4.9795    5.7145   -0.5257 H       1  UNL1        0.0625
     49 H          -6.1040    9.4365   -1.5114 H       1  UNL1        0.1493
     50 H          -6.3778    6.4952   -1.1539 H       1  UNL1        0.0493
     51 H          -8.5965    8.5294   -1.0066 H       1  UNL1        0.0247
     52 H          -8.6926    6.7714   -0.7742 H       1  UNL1        0.0247
     53 H          -7.8178    7.7719    0.3935 H       1  UNL1        0.0247
     54 H          -6.0617    7.2723   -3.5128 H       1  UNL1        0.0247
     55 H          -7.5734    6.4105   -3.1886 H       1  UNL1        0.0247
     56 H          -7.5730    8.1792   -3.3521 H       1  UNL1        0.0247
     57 H          -2.0827    8.7928    0.2623 H       1  UNL1        0.0658
     58 H          -1.3893    5.6595   -1.0350 H       1  UNL1        0.0684
     59 H          -1.2787    5.2882   -3.3262 H       1  UNL1        0.0262
     60 H          -0.0755    6.4934   -2.8491 H       1  UNL1        0.0262
     61 H           0.4279    4.8476   -3.2746 H       1  UNL1        0.0262
     62 H          -1.2747    3.3807   -0.1081 H       1  UNL1        0.0496
     63 H          -1.8713    3.3567   -1.7494 H       1  UNL1        0.0496
@<TRIPOS>BOND
     1     1     2    1
     2     2     3   ar
     3     3     4   ar
     4     4     5   ar
     5     5     6   ar
     6     6     7   ar
     7     7     8   ar
     8     8     9   ar
     9     9    10    1
    10    10    11    1
    11    11    12    1
    12    12    13    1
    13    13    14    1
    14    14    15    2
    15    15    16    1
    16    16    17    3
    17    14    18    1
    18    18    19    1
    19    19    20   ar
    20    20    21   ar
    21    21    22   ar
    22    22    23   ar
    23    23    24    1
    24    24    25    2
    25    24    26   am
    26    26    27    1
    27    27    28    1
    28    27    29    1
    29    23    30   ar
    30    19    30   ar
    31    13    31    1
    32    31    32    1
    33    31    33    1
    34    10    33    1
    35     9    34   ar
    36     2    34   ar
    37     5    34   ar
    38     1    35    1
    39     1    36    1
    40     1    37    1
    41     3    38    1
    42     4    39    1
    43     7    40    1
    44    11    41    1
    45    11    42    1
    46    12    43    1
    47    12    44    1
    48    18    45    1
    49    20    46    1
    50    21    47    1
    51    22    48    1
    52    26    49    1
    53    27    50    1
    54    28    51    1
    55    28    52    1
    56    28    53    1
    57    29    54    1
    58    29    55    1
    59    29    56    1
    60    30    57    1
    61    31    58    1
    62    32    59    1
    63    32    60    1
    64    32    61    1
    65    33    62    1
    66    33    63    1
@<TRIPOS>MOLECULE
mol_CHEMBL4649816_18
 63 66 0 0 0
SMALL
GASTEIGER

@<TRIPOS>ATOM
      1 C           1.0987   -0.1796   -0.0068 C.3     1  UNL1       -0.0376
      2 C           0.5508   -1.0048    1.1002 C.ar    1  UNL1       -0.0206
      3 C           0.7076   -2.3781    1.2018 C.ar    1  UNL1        0.0071
      4 N           0.1696   -2.7843    2.3910 N.ar    1  UNL1       -0.3454
      5 C          -0.3264   -1.7059    3.0646 C.ar    1  UNL1        0.1434
      6 N          -0.8519   -1.7773    4.2950 N.ar    1  UNL1       -0.2178
      7 C          -1.2170   -0.5673    4.7360 C.ar    1  UNL1        0.1204
      8 N          -1.1373    0.6083    4.0880 N.ar    1  UNL1       -0.2200
      9 C          -0.6444    0.6401    2.8207 C.ar    1  UNL1        0.1342
     10 N          -0.5681    1.8617    2.1963 N.pl3   1  UNL1       -0.3086
     11 C          -1.2680    2.1487    0.9427 C.3     1  UNL1        0.0426
     12 C          -2.2143    3.3705    1.0560 C.3     1  UNL1        0.0765
     13 N          -1.5572    4.5276    1.7334 N.pl3   1  UNL1       -0.2183
     14 C          -1.4696    5.7707    1.0898 C.cat   1  UNL1        0.3883
     15 N          -2.0996    5.8952   -0.0563 N.2     1  UNL1        0.0068
     16 C          -2.0686    7.0612   -0.7012 C.1     1  UNL1        0.2951
     17 N          -2.0303    8.0978   -1.2244 N.1     1  UNL1       -0.1505
     18 N          -0.8163    6.8421    1.6780 N.pl3   1  UNL1       -0.2052
     19 C           0.2450    6.8800    2.5964 C.ar    1  UNL1        0.0924
     20 C           1.3250    6.0063    2.4919 C.ar    1  UNL1       -0.0252
     21 C           2.0534    5.6905    3.6288 C.ar    1  UNL1       -0.0580
     22 C           1.7501    6.3080    4.8441 C.ar    1  UNL1       -0.0494
     23 C           0.8451    7.3668    4.9238 C.ar    1  UNL1        0.0398
     24 C           0.5463    8.2057    6.1301 C.2     1  UNL1        0.2444
     25 O          -0.3215    9.0794    6.0318 O.2     1  UNL1       -0.2702
     26 N           1.1723    8.1306    7.3473 N.am    1  UNL1       -0.3090
     27 C           2.1400    7.2371    7.9682 C.3     1  UNL1        0.0178
     28 C           3.4115    7.9814    8.3500 C.3     1  UNL1       -0.0469
     29 C           1.4994    6.5186    9.1489 C.3     1  UNL1       -0.0469
     30 C           0.0940    7.6451    3.7660 C.ar    1  UNL1       -0.0131
     31 C          -1.0781    4.1413    3.0849 C.3     1  UNL1        0.0845
     32 C          -2.2133    3.8104    4.0526 C.3     1  UNL1       -0.0315
     33 C          -0.0478    2.9920    2.9582 C.3     1  UNL1        0.0452
     34 C          -0.1674   -0.5742    2.2731 C.ar    1  UNL1        0.0614
     35 H           1.0832    0.8858    0.2218 H       1  UNL1        0.0278
     36 H           0.5358   -0.3526   -0.9291 H       1  UNL1        0.0278
     37 H           2.1464   -0.4435   -0.1895 H       1  UNL1        0.0278
     38 H           1.1884   -3.0894    0.5427 H       1  UNL1        0.0810
     39 H           0.1683   -3.7240    2.7600 H       1  UNL1        0.1668
     40 H          -1.6237   -0.5278    5.7417 H       1  UNL1        0.1048
     41 H          -0.5253    2.3742    0.1702 H       1  UNL1        0.0493
     42 H          -1.8484    1.2839    0.5987 H       1  UNL1        0.0493
     43 H          -2.5639    3.6160    0.0481 H       1  UNL1        0.0650
     44 H          -3.1143    3.0951    1.6170 H       1  UNL1        0.0650
     45 H          -1.1285    7.7714    1.4145 H       1  UNL1        0.2512
     46 H           1.4982    5.4556    1.5711 H       1  UNL1        0.0650
     47 H           2.7863    4.8873    3.6023 H       1  UNL1        0.0619
     48 H           2.2315    5.8652    5.6924 H       1  UNL1        0.0625
     49 H           0.8157    8.8626    7.9535 H       1  UNL1        0.1493
     50 H           2.4473    6.4649    7.2904 H       1  UNL1        0.0493
     51 H           3.2344    8.7074    9.1486 H       1  UNL1        0.0247
     52 H           4.1764    7.2740    8.6891 H       1  UNL1        0.0247
     53 H           3.8170    8.5203    7.4859 H       1  UNL1        0.0247
     54 H           0.5420    6.0722    8.8547 H       1  UNL1        0.0247
     55 H           2.1486    5.7116    9.5039 H       1  UNL1        0.0247
     56 H           1.3085    7.2021    9.9814 H       1  UNL1        0.0247
     57 H          -0.7041    8.3865    3.8099 H       1  UNL1        0.0658
     58 H          -0.5916    4.9574    3.5934 H       1  UNL1        0.0684
     59 H          -1.8008    3.6109    5.0494 H       1  UNL1        0.0262
     60 H          -2.8962    4.6615    4.1417 H       1  UNL1        0.0262
     61 H          -2.7938    2.9341    3.7587 H       1  UNL1        0.0262
     62 H           0.8266    3.3432    2.4001 H       1  UNL1        0.0496
     63 H           0.3301    2.7031    3.9470 H       1  UNL1        0.0496
@<TRIPOS>BOND
     1     1     2    1
     2     2     3   ar
     3     3     4   ar
     4     4     5   ar
     5     5     6   ar
     6     6     7   ar
     7     7     8   ar
     8     8     9   ar
     9     9    10    1
    10    10    11    1
    11    11    12    1
    12    12    13    1
    13    13    14    1
    14    14    15    2
    15    15    16    1
    16    16    17    3
    17    14    18    1
    18    18    19    1
    19    19    20   ar
    20    20    21   ar
    21    21    22   ar
    22    22    23   ar
    23    23    24    1
    24    24    25    2
    25    24    26   am
    26    26    27    1
    27    27    28    1
    28    27    29    1
    29    23    30   ar
    30    19    30   ar
    31    13    31    1
    32    31    32    1
    33    31    33    1
    34    10    33    1
    35     9    34   ar
    36     2    34   ar
    37     5    34   ar
    38     1    35    1
    39     1    36    1
    40     1    37    1
    41     3    38    1
    42     4    39    1
    43     7    40    1
    44    11    41    1
    45    11    42    1
    46    12    43    1
    47    12    44    1
    48    18    45    1
    49    20    46    1
    50    21    47    1
    51    22    48    1
    52    26    49    1
    53    27    50    1
    54    28    51    1
    55    28    52    1
    56    28    53    1
    57    29    54    1
    58    29    55    1
    59    29    56    1
    60    30    57    1
    61    31    58    1
    62    32    59    1
    63    32    60    1
    64    32    61    1
    65    33    62    1
    66    33    63    1
@<TRIPOS>MOLECULE
mol_CHEMBL3352853_19
 63 66 0 0 0
SMALL
GASTEIGER

@<TRIPOS>ATOM
      1 C           0.9407   -0.1629    0.1579 C.3     1  UNL1       -0.0376
      2 C           0.5767   -1.2483   -0.7882 C.ar    1  UNL1       -0.0206
      3 C           0.8882   -2.5853   -0.5981 C.ar    1  UNL1        0.0071
      4 N           0.3393   -3.3033   -1.6229 N.ar    1  UNL1       -0.3454
      5 C          -0.3229   -2.4639   -2.4712 C.ar    1  UNL1        0.1434
      6 N          -1.0070   -2.8859   -3.5429 N.ar    1  UNL1       -0.2178
      7 C          -1.5989   -1.8641   -4.1722 C.ar    1  UNL1        0.1204
      8 N          -1.5539   -0.5588   -3.8532 N.ar    1  UNL1       -0.2200
      9 C          -0.8160   -0.1552   -2.7832 C.ar    1  UNL1        0.1342
     10 N          -0.8161    1.1864   -2.4853 N.pl3   1  UNL1       -0.3086
     11 C           0.4110    1.9775   -2.3933 C.3     1  UNL1        0.0426
     12 C           0.3879    3.2034   -3.3379 C.3     1  UNL1        0.0765
     13 N          -0.8874    3.9702   -3.2168 N.pl3   1  UNL1       -0.2183
     14 C          -0.8660    5.3226   -2.8460 C.cat   1  UNL1        0.3883
     15 N           0.3131    5.8927   -2.7406 N.2     1  UNL1        0.0068
     16 C           0.3959    7.1826   -2.4157 C.1     1  UNL1        0.2951
     17 N           0.4261    8.3121   -2.1461 N.1     1  UNL1       -0.1505
     18 N          -2.0361    6.0456   -2.6821 N.pl3   1  UNL1       -0.2052
     19 C          -3.3262    5.6390   -2.3072 C.ar    1  UNL1        0.0924
     20 C          -3.5264    4.6879   -1.3092 C.ar    1  UNL1       -0.0252
     21 C          -4.6905    3.9347   -1.3156 C.ar    1  UNL1       -0.0580
     22 C          -5.6799    4.1913   -2.2671 C.ar    1  UNL1       -0.0494
     23 C          -5.6189    5.3029   -3.1077 C.ar    1  UNL1        0.0398
     24 C          -6.6831    5.7758   -4.0521 C.2     1  UNL1        0.2444
     25 O          -6.4348    6.7498   -4.7703 O.2     1  UNL1       -0.2702
     26 N          -7.9451    5.2556   -4.1777 N.am    1  UNL1       -0.3090
     27 C          -8.6480    4.0928   -3.6545 C.3     1  UNL1        0.0178
     28 C          -9.8657    4.5033   -2.8394 C.3     1  UNL1       -0.0469
     29 C          -8.9923    3.1415   -4.7934 C.3     1  UNL1       -0.0469
     30 C          -4.4122    6.0273   -3.1103 C.ar    1  UNL1       -0.0131
     31 C          -2.0521    3.1005   -3.5231 C.3     1  UNL1        0.0845
     32 C          -2.0971    2.6494   -4.9825 C.3     1  UNL1       -0.0315
     33 C          -2.0862    1.9074   -2.5335 C.3     1  UNL1        0.0452
     34 C          -0.1738   -1.1582   -2.0164 C.ar    1  UNL1        0.0614
     35 H           0.8578   -0.5135    1.1926 H       1  UNL1        0.0278
     36 H           0.2774    0.6981    0.0673 H       1  UNL1        0.0278
     37 H           1.9730    0.1589   -0.0114 H       1  UNL1        0.0278
     38 H           1.4303   -3.0831    0.1956 H       1  UNL1        0.0810
     39 H           0.3709   -4.3057   -1.7388 H       1  UNL1        0.1668
     40 H          -2.1921   -2.1192   -5.0447 H       1  UNL1        0.1048
     41 H           0.5151    2.3479   -1.3681 H       1  UNL1        0.0493
     42 H           1.2978    1.3743   -2.6213 H       1  UNL1        0.0493
     43 H           1.2701    3.8130   -3.1190 H       1  UNL1        0.0650
     44 H           0.5106    2.8776   -4.3767 H       1  UNL1        0.0650
     45 H          -1.9823    7.0470   -2.8402 H       1  UNL1        0.2512
     46 H          -2.7186    4.4254   -0.6313 H       1  UNL1        0.0650
     47 H          -4.7902    3.0773   -0.6541 H       1  UNL1        0.0619
     48 H          -6.4417    3.4400   -2.3226 H       1  UNL1        0.0625
     49 H          -8.4738    5.8130   -4.8411 H       1  UNL1        0.1493
     50 H          -8.0284    3.5343   -2.9805 H       1  UNL1        0.0493
     51 H         -10.6351    4.9686   -3.4617 H       1  UNL1        0.0247
     52 H         -10.3020    3.6277   -2.3459 H       1  UNL1        0.0247
     53 H          -9.5825    5.2180   -2.0581 H       1  UNL1        0.0247
     54 H          -8.1081    2.9430   -5.4110 H       1  UNL1        0.0247
     55 H          -9.3460    2.1833   -4.3993 H       1  UNL1        0.0247
     56 H          -9.7679    3.5567   -5.4438 H       1  UNL1        0.0247
     57 H          -4.2718    6.8325   -3.8319 H       1  UNL1        0.0658
     58 H          -2.9881    3.6266   -3.4304 H       1  UNL1        0.0684
     59 H          -3.0251    2.0939   -5.1673 H       1  UNL1        0.0262
     60 H          -2.0937    3.5177   -5.6493 H       1  UNL1        0.0262
     61 H          -1.2673    1.9972   -5.2609 H       1  UNL1        0.0262
     62 H          -2.2529    2.2801   -1.5170 H       1  UNL1        0.0496
     63 H          -2.9410    1.2548   -2.7514 H       1  UNL1        0.0496
@<TRIPOS>BOND
     1     1     2    1
     2     2     3   ar
     3     3     4   ar
     4     4     5   ar
     5     5     6   ar
     6     6     7   ar
     7     7     8   ar
     8     8     9   ar
     9     9    10    1
    10    10    11    1
    11    11    12    1
    12    12    13    1
    13    13    14    1
    14    14    15    2
    15    15    16    1
    16    16    17    3
    17    14    18    1
    18    18    19    1
    19    19    20   ar
    20    20    21   ar
    21    21    22   ar
    22    22    23   ar
    23    23    24    1
    24    24    25    2
    25    24    26   am
    26    26    27    1
    27    27    28    1
    28    27    29    1
    29    23    30   ar
    30    19    30   ar
    31    13    31    1
    32    31    32    1
    33    31    33    1
    34    10    33    1
    35     9    34   ar
    36     2    34   ar
    37     5    34   ar
    38     1    35    1
    39     1    36    1
    40     1    37    1
    41     3    38    1
    42     4    39    1
    43     7    40    1
    44    11    41    1
    45    11    42    1
    46    12    43    1
    47    12    44    1
    48    18    45    1
    49    20    46    1
    50    21    47    1
    51    22    48    1
    52    26    49    1
    53    27    50    1
    54    28    51    1
    55    28    52    1
    56    28    53    1
    57    29    54    1
    58    29    55    1
    59    29    56    1
    60    30    57    1
    61    31    58    1
    62    32    59    1
    63    32    60    1
    64    32    61    1
    65    33    62    1
    66    33    63    1
@<TRIPOS>MOLECULE
mol_CHEMBL572170_20
 63 66 0 0 0
SMALL
GASTEIGER

@<TRIPOS>ATOM
      1 C           0.9076   -0.2426   -0.0897 C.3     1  UNL1       -0.0376
      2 C           0.5391    0.0815   -1.4912 C.ar    1  UNL1       -0.0206
      3 C           0.1287   -0.8399   -2.4405 C.ar    1  UNL1        0.0071
      4 N          -0.1875   -0.1628   -3.5858 N.ar    1  UNL1       -0.3454
      5 C           0.0012    1.1761   -3.3976 C.ar    1  UNL1        0.1434
      6 N          -0.2763    2.1030   -4.3244 N.ar    1  UNL1       -0.2178
      7 C          -0.0456    3.3367   -3.8584 C.ar    1  UNL1        0.1204
      8 N           0.4156    3.6905   -2.6458 N.ar    1  UNL1       -0.2200
      9 C           0.7300    2.7236   -1.7416 C.ar    1  UNL1        0.1342
     10 N           1.1798    3.1306   -0.5104 N.pl3   1  UNL1       -0.3086
     11 C           2.4304    2.6662    0.0850 C.3     1  UNL1        0.0426
     12 C           3.3355    3.8400    0.5354 C.3     1  UNL1        0.0765
     13 N           2.5777    4.8712    1.3049 N.pl3   1  UNL1       -0.2183
     14 C           3.0031    5.2510    2.5859 C.cat   1  UNL1        0.3883
     15 N           4.1474    4.7608    3.0049 N.2     1  UNL1        0.0068
     16 C           4.6093    5.1022    4.2076 C.1     1  UNL1        0.2951
     17 N           4.9857    5.4348    5.2551 N.1     1  UNL1       -0.1505
     18 N           2.2847    6.1645    3.3399 N.pl3   1  UNL1       -0.2052
     19 C           0.9126    6.4635    3.3566 C.ar    1  UNL1        0.0924
     20 C          -0.0485    5.4631    3.2287 C.ar    1  UNL1       -0.0252
     21 C          -1.2964    5.7840    2.7169 C.ar    1  UNL1       -0.0580
     22 C          -1.6014    7.1115    2.4110 C.ar    1  UNL1       -0.0494
     23 C          -0.7578    8.1610    2.7750 C.ar    1  UNL1        0.0398
     24 C          -1.0455    9.6271    2.6516 C.2     1  UNL1        0.2444
     25 O          -0.1529   10.4244    2.9570 O.2     1  UNL1       -0.2702
     26 N          -2.2353   10.1894    2.2668 N.am    1  UNL1       -0.3090
     27 C          -3.4947    9.6939    1.7290 C.3     1  UNL1        0.0178
     28 C          -4.6603   10.0293    2.6479 C.3     1  UNL1       -0.0469
     29 C          -3.6910   10.2147    0.3109 C.3     1  UNL1       -0.0469
     30 C           0.5174    7.8089    3.2559 C.ar    1  UNL1       -0.0131
     31 C           1.4325    5.3888    0.5111 C.3     1  UNL1        0.0845
     32 C           1.8643    6.1755   -0.7256 C.3     1  UNL1       -0.0315
     33 C           0.4784    4.2212    0.1579 C.3     1  UNL1        0.0452
     34 C           0.4915    1.3798   -2.1132 C.ar    1  UNL1        0.0614
     35 H           0.5505   -1.2388    0.1916 H       1  UNL1        0.0278
     36 H           0.4591    0.4716    0.6074 H       1  UNL1        0.0278
     37 H           1.9947   -0.2307    0.0313 H       1  UNL1        0.0278
     38 H           0.0119   -1.9145   -2.3858 H       1  UNL1        0.0810
     39 H          -0.5453   -0.5627   -4.4408 H       1  UNL1        0.1668
     40 H          -0.2613    4.1536   -4.5399 H       1  UNL1        0.1048
     41 H           2.1964    2.0610    0.9673 H       1  UNL1        0.0493
     42 H           2.9985    2.0384   -0.6119 H       1  UNL1        0.0493
     43 H           4.1679    3.4161    1.1058 H       1  UNL1        0.0650
     44 H           3.7916    4.3165   -0.3397 H       1  UNL1        0.0650
     45 H           2.8062    6.7140    4.0155 H       1  UNL1        0.2512
     46 H           0.2227    4.4202    3.3709 H       1  UNL1        0.0650
     47 H          -1.9962    4.9960    2.4488 H       1  UNL1        0.0619
     48 H          -2.4949    7.2355    1.8328 H       1  UNL1        0.0625
     49 H          -2.1693   11.1996    2.3409 H       1  UNL1        0.1493
     50 H          -3.4920    8.6242    1.6536 H       1  UNL1        0.0493
     51 H          -4.8459   11.1058    2.6954 H       1  UNL1        0.0247
     52 H          -5.5726    9.5356    2.2948 H       1  UNL1        0.0247
     53 H          -4.4627    9.6729    3.6654 H       1  UNL1        0.0247
     54 H          -2.7940   10.0356   -0.2939 H       1  UNL1        0.0247
     55 H          -4.5281    9.7020   -0.1739 H       1  UNL1        0.0247
     56 H          -3.8910   11.2904    0.3016 H       1  UNL1        0.0247
     57 H           1.2554    8.5901    3.4393 H       1  UNL1        0.0658
     58 H           0.8599    6.1246    1.0524 H       1  UNL1        0.0684
     59 H           0.9797    6.5937   -1.2220 H       1  UNL1        0.0262
     60 H           2.5096    7.0117   -0.4389 H       1  UNL1        0.0262
     61 H           2.3933    5.5682   -1.4626 H       1  UNL1        0.0262
     62 H           0.0650    3.7907    1.0767 H       1  UNL1        0.0496
     63 H          -0.3843    4.5898   -0.4108 H       1  UNL1        0.0496
@<TRIPOS>BOND
     1     1     2    1
     2     2     3   ar
     3     3     4   ar
     4     4     5   ar
     5     5     6   ar
     6     6     7   ar
     7     7     8   ar
     8     8     9   ar
     9     9    10    1
    10    10    11    1
    11    11    12    1
    12    12    13    1
    13    13    14    1
    14    14    15    2
    15    15    16    1
    16    16    17    3
    17    14    18    1
    18    18    19    1
    19    19    20   ar
    20    20    21   ar
    21    21    22   ar
    22    22    23   ar
    23    23    24    1
    24    24    25    2
    25    24    26   am
    26    26    27    1
    27    27    28    1
    28    27    29    1
    29    23    30   ar
    30    19    30   ar
    31    13    31    1
    32    31    32    1
    33    31    33    1
    34    10    33    1
    35     9    34   ar
    36     2    34   ar
    37     5    34   ar
    38     1    35    1
    39     1    36    1
    40     1    37    1
    41     3    38    1
    42     4    39    1
    43     7    40    1
    44    11    41    1
    45    11    42    1
    46    12    43    1
    47    12    44    1
    48    18    45    1
    49    20    46    1
    50    21    47    1
    51    22    48    1
    52    26    49    1
    53    27    50    1
    54    28    51    1
    55    28    52    1
    56    28    53    1
    57    29    54    1
    58    29    55    1
    59    29    56    1
    60    30    57    1
    61    31    58    1
    62    32    59    1
    63    32    60    1
    64    32    61    1
    65    33    62    1
    66    33    63    1
@<TRIPOS>MOLECULE
mol_CHEMBL4087971_21
 63 66 0 0 0
SMALL
GASTEIGER

@<TRIPOS>ATOM
      1 C           0.8842   -0.1399   -0.0139 C.3     1  UNL1       -0.0376
      2 C           0.5160    0.1858   -1.4150 C.ar    1  UNL1       -0.0206
      3 C           0.1049   -0.7343   -2.3653 C.ar    1  UNL1        0.0071
      4 N          -0.2106   -0.0559   -3.5099 N.ar    1  UNL1       -0.3454
      5 C          -0.0206    1.2826   -3.3205 C.ar    1  UNL1        0.1434
      6 N          -0.2972    2.2107   -4.2464 N.ar    1  UNL1       -0.2178
      7 C          -0.0654    3.4438   -3.7793 C.ar    1  UNL1        0.1204
      8 N           0.3960    3.7959   -2.5663 N.ar    1  UNL1       -0.2200
      9 C           0.7094    2.8279   -1.6630 C.ar    1  UNL1        0.1342
     10 N           1.1594    3.2333   -0.4314 N.pl3   1  UNL1       -0.3086
     11 C           2.4096    2.7672    0.1637 C.3     1  UNL1        0.0426
     12 C           3.3158    3.9398    0.6152 C.3     1  UNL1        0.0765
     13 N           2.5589    4.9709    1.3856 N.pl3   1  UNL1       -0.2183
     14 C           2.9847    5.3491    2.6670 C.cat   1  UNL1        0.3883
     15 N           4.1285    4.8574    3.0856 N.2     1  UNL1        0.0068
     16 C           4.5906    5.1972    4.2886 C.1     1  UNL1        0.2951
     17 N           4.9673    5.5284    5.3364 N.1     1  UNL1       -0.1505
     18 N           2.2671    6.2626    3.4218 N.pl3   1  UNL1       -0.2052
     19 C           0.8953    6.5629    3.4388 C.ar    1  UNL1        0.0924
     20 C          -0.0667    5.5635    3.3099 C.ar    1  UNL1       -0.0252
     21 C          -1.3142    5.8861    2.7984 C.ar    1  UNL1       -0.0580
     22 C          -1.6180    7.2141    2.4937 C.ar    1  UNL1       -0.0494
     23 C          -0.7735    8.2625    2.8588 C.ar    1  UNL1        0.0398
     24 C          -1.0598    9.7290    2.7367 C.2     1  UNL1        0.2444
     25 O          -0.1664   10.5252    3.0429 O.2     1  UNL1       -0.2702
     26 N          -2.2490   10.2928    2.3524 N.am    1  UNL1       -0.3090
     27 C          -3.5089    9.7990    1.8142 C.3     1  UNL1        0.0178
     28 C          -4.6742   10.1347    2.7333 C.3     1  UNL1       -0.0469
     29 C          -3.7047   10.3214    0.3965 C.3     1  UNL1       -0.0469
     30 C           0.5014    7.9087    3.3393 C.ar    1  UNL1       -0.0131
     31 C           1.4143    5.4904    0.5923 C.3     1  UNL1        0.0845
     32 C           1.8469    6.2778   -0.6437 C.3     1  UNL1       -0.0315
     33 C           0.4591    4.3241    0.2379 C.3     1  UNL1        0.0452
     34 C           0.4697    1.4847   -2.0359 C.ar    1  UNL1        0.0614
     35 H           0.5264   -1.1362    0.2664 H       1  UNL1        0.0278
     36 H           0.4361    0.5738    0.6839 H       1  UNL1        0.0278
     37 H           1.9713   -0.1289    0.1073 H       1  UNL1        0.0278
     38 H          -0.0130   -1.8088   -2.3115 H       1  UNL1        0.0810
     39 H          -0.5687   -0.4547   -4.3654 H       1  UNL1        0.1668
     40 H          -0.2803    4.2615   -4.4601 H       1  UNL1        0.1048
     41 H           2.1749    2.1615    1.0455 H       1  UNL1        0.0493
     42 H           2.9772    2.1395   -0.5337 H       1  UNL1        0.0493
     43 H           4.1478    3.5145    1.1852 H       1  UNL1        0.0650
     44 H           3.7723    4.4166   -0.2595 H       1  UNL1        0.0650
     45 H           2.7892    6.8110    4.0979 H       1  UNL1        0.2512
     46 H           0.2035    4.5203    3.4511 H       1  UNL1        0.0650
     47 H          -2.0148    5.0990    2.5295 H       1  UNL1        0.0619
     48 H          -2.5114    7.3395    1.9157 H       1  UNL1        0.0625
     49 H          -2.1821   11.3029    2.4275 H       1  UNL1        0.1493
     50 H          -3.5072    8.7294    1.7378 H       1  UNL1        0.0493
     51 H          -4.8587   11.2113    2.7818 H       1  UNL1        0.0247
     52 H          -5.5870    9.6422    2.3797 H       1  UNL1        0.0247
     53 H          -4.4770    9.7770    3.7505 H       1  UNL1        0.0247
     54 H          -2.8078   10.1419   -0.2085 H       1  UNL1        0.0247
     55 H          -4.5422    9.8099   -0.0888 H       1  UNL1        0.0247
     56 H          -3.9036   11.3972    0.3883 H       1  UNL1        0.0247
     57 H           1.2402    8.6890    3.5235 H       1  UNL1        0.0658
     58 H           0.8424    6.2263    1.1342 H       1  UNL1        0.0684
     59 H           0.9627    6.6975   -1.1397 H       1  UNL1        0.0262
     60 H           2.4931    7.1131   -0.3561 H       1  UNL1        0.0262
     61 H           2.3754    5.6708   -1.3813 H       1  UNL1        0.0262
     62 H           0.0452    3.8931    1.1563 H       1  UNL1        0.0496
     63 H          -0.4032    4.6941   -0.3306 H       1  UNL1        0.0496
@<TRIPOS>BOND
     1     1     2    1
     2     2     3   ar
     3     3     4   ar
     4     4     5   ar
     5     5     6   ar
     6     6     7   ar
     7     7     8   ar
     8     8     9   ar
     9     9    10    1
    10    10    11    1
    11    11    12    1
    12    12    13    1
    13    13    14    1
    14    14    15    2
    15    15    16    1
    16    16    17    3
    17    14    18    1
    18    18    19    1
    19    19    20   ar
    20    20    21   ar
    21    21    22   ar
    22    22    23   ar
    23    23    24    1
    24    24    25    2
    25    24    26   am
    26    26    27    1
    27    27    28    1
    28    27    29    1
    29    23    30   ar
    30    19    30   ar
    31    13    31    1
    32    31    32    1
    33    31    33    1
    34    10    33    1
    35     9    34   ar
    36     2    34   ar
    37     5    34   ar
    38     1    35    1
    39     1    36    1
    40     1    37    1
    41     3    38    1
    42     4    39    1
    43     7    40    1
    44    11    41    1
    45    11    42    1
    46    12    43    1
    47    12    44    1
    48    18    45    1
    49    20    46    1
    50    21    47    1
    51    22    48    1
    52    26    49    1
    53    27    50    1
    54    28    51    1
    55    28    52    1
    56    28    53    1
    57    29    54    1
    58    29    55    1
    59    29    56    1
    60    30    57    1
    61    31    58    1
    62    32    59    1
    63    32    60    1
    64    32    61    1
    65    33    62    1
    66    33    63    1
@<TRIPOS>MOLECULE
mol_CHEMBL3593768_22
 63 66 0 0 0
SMALL
GASTEIGER

@<TRIPOS>ATOM
      1 C           0.9890   -0.2186    0.1201 C.3     1  UNL1       -0.0376
      2 C           0.5805    0.6670    1.2402 C.ar    1  UNL1       -0.0206
      3 C           0.0371    0.2424    2.4414 C.ar    1  UNL1        0.0071
      4 N          -0.1288    1.3360    3.2466 N.ar    1  UNL1       -0.3454
      5 C           0.3062    2.4565    2.5990 C.ar    1  UNL1        0.1434
      6 N           0.3328    3.6761    3.1532 N.ar    1  UNL1       -0.2178
      7 C           0.8535    4.5785    2.3109 C.ar    1  UNL1        0.1204
      8 N           1.2924    4.3836    1.0540 N.ar    1  UNL1       -0.2200
      9 C           1.2065    3.1432    0.5045 C.ar    1  UNL1        0.1342
     10 N           1.6749    2.9695   -0.7753 N.pl3   1  UNL1       -0.3086
     11 C           0.8196    2.4877   -1.8600 C.3     1  UNL1        0.0426
     12 C           0.7507    3.4816   -3.0449 C.3     1  UNL1        0.0765
     13 N           2.1051    3.9639   -3.4450 N.pl3   1  UNL1       -0.2183
     14 C           2.5564    3.7883   -4.7609 C.cat   1  UNL1        0.3883
     15 N           1.6894    3.3219   -5.6313 N.2     1  UNL1        0.0068
     16 C           2.0554    3.1544   -6.9018 C.1     1  UNL1        0.2951
     17 N           2.4096    3.0373   -8.0022 N.1     1  UNL1       -0.1505
     18 N           3.8343    4.1620   -5.1431 N.pl3   1  UNL1       -0.2052
     19 C           5.0166    4.2881   -4.3983 C.ar    1  UNL1        0.0924
     20 C           5.3787    3.3383   -3.4457 C.ar    1  UNL1       -0.0252
     21 C           6.2166    3.7085   -2.4046 C.ar    1  UNL1       -0.0580
     22 C           6.7486    5.0000   -2.3620 C.ar    1  UNL1       -0.0494
     23 C           6.5908    5.8948   -3.4214 C.ar    1  UNL1        0.0398
     24 C           7.2122    7.2527   -3.5578 C.2     1  UNL1        0.2444
     25 O           6.9430    7.9184   -4.5632 O.2     1  UNL1       -0.2702
     26 N           8.0906    7.8374   -2.6839 N.am    1  UNL1       -0.3090
     27 C           8.6143    7.5193   -1.3636 C.3     1  UNL1        0.0178
     28 C          10.1245    7.3331   -1.4051 C.3     1  UNL1       -0.0469
     29 C           8.1776    8.5799   -0.3614 C.3     1  UNL1       -0.0469
     30 C           5.7144    5.5067   -4.4524 C.ar    1  UNL1       -0.0131
     31 C           2.7929    4.6079   -2.2960 C.3     1  UNL1        0.0845
     32 C           2.1242    5.9059   -1.8462 C.3     1  UNL1       -0.0315
     33 C           2.9455    3.5862   -1.1414 C.3     1  UNL1        0.0452
     34 C           0.7172    2.0981    1.3216 C.ar    1  UNL1        0.0614
     35 H           0.3661   -0.0430   -0.7600 H       1  UNL1        0.0278
     36 H           0.8816   -1.2742    0.3912 H       1  UNL1        0.0278
     37 H           2.0383   -0.0482   -0.1419 H       1  UNL1        0.0278
     38 H          -0.2167   -0.7476    2.7977 H       1  UNL1        0.0810
     39 H          -0.4764    1.3363    4.1943 H       1  UNL1        0.1668
     40 H           0.9363    5.5925    2.6895 H       1  UNL1        0.1048
     41 H           1.2332    1.5439   -2.2320 H       1  UNL1        0.0493
     42 H          -0.2017    2.2902   -1.5120 H       1  UNL1        0.0493
     43 H           0.2194    2.9872   -3.8642 H       1  UNL1        0.0650
     44 H           0.1314    4.3442   -2.7748 H       1  UNL1        0.0650
     45 H           3.9698    4.4018   -6.1202 H       1  UNL1        0.2512
     46 H           4.8931    2.3661   -3.4277 H       1  UNL1        0.0650
     47 H           6.3790    3.0326   -1.5680 H       1  UNL1        0.0619
     48 H           7.2396    5.2401   -1.4408 H       1  UNL1        0.0625
     49 H           8.3969    8.7278   -3.0629 H       1  UNL1        0.1493
     50 H           8.2089    6.5960   -0.9973 H       1  UNL1        0.0493
     51 H          10.6434    8.2692   -1.6317 H       1  UNL1        0.0247
     52 H          10.4878    6.9617   -0.4407 H       1  UNL1        0.0247
     53 H          10.4026    6.5995   -2.1707 H       1  UNL1        0.0247
     54 H           7.0956    8.7461   -0.4250 H       1  UNL1        0.0247
     55 H           8.4059    8.2573    0.6598 H       1  UNL1        0.0247
     56 H           8.6753    9.5369   -0.5430 H       1  UNL1        0.0247
     57 H           5.4769    6.2120   -5.2492 H       1  UNL1        0.0658
     58 H           3.7807    4.9519   -2.5530 H       1  UNL1        0.0684
     59 H           2.7199    6.3696   -1.0500 H       1  UNL1        0.0262
     60 H           2.0751    6.6157   -2.6781 H       1  UNL1        0.0262
     61 H           1.1148    5.7627   -1.4568 H       1  UNL1        0.0262
     62 H           3.5896    2.7619   -1.4670 H       1  UNL1        0.0496
     63 H           3.4599    4.0425   -0.2864 H       1  UNL1        0.0496
@<TRIPOS>BOND
     1     1     2    1
     2     2     3   ar
     3     3     4   ar
     4     4     5   ar
     5     5     6   ar
     6     6     7   ar
     7     7     8   ar
     8     8     9   ar
     9     9    10    1
    10    10    11    1
    11    11    12    1
    12    12    13    1
    13    13    14    1
    14    14    15    2
    15    15    16    1
    16    16    17    3
    17    14    18    1
    18    18    19    1
    19    19    20   ar
    20    20    21   ar
    21    21    22   ar
    22    22    23   ar
    23    23    24    1
    24    24    25    2
    25    24    26   am
    26    26    27    1
    27    27    28    1
    28    27    29    1
    29    23    30   ar
    30    19    30   ar
    31    13    31    1
    32    31    32    1
    33    31    33    1
    34    10    33    1
    35     9    34   ar
    36     2    34   ar
    37     5    34   ar
    38     1    35    1
    39     1    36    1
    40     1    37    1
    41     3    38    1
    42     4    39    1
    43     7    40    1
    44    11    41    1
    45    11    42    1
    46    12    43    1
    47    12    44    1
    48    18    45    1
    49    20    46    1
    50    21    47    1
    51    22    48    1
    52    26    49    1
    53    27    50    1
    54    28    51    1
    55    28    52    1
    56    28    53    1
    57    29    54    1
    58    29    55    1
    59    29    56    1
    60    30    57    1
    61    31    58    1
    62    32    59    1
    63    32    60    1
    64    32    61    1
    65    33    62    1
    66    33    63    1
@<TRIPOS>MOLECULE
mol_CHEMBL78377_23
 63 66 0 0 0
SMALL
GASTEIGER

@<TRIPOS>ATOM
      1 C           1.1228   -0.3927    0.0791 C.3     1  UNL1       -0.0376
      2 C           0.5200   -0.2896    1.4326 C.ar    1  UNL1       -0.0206
      3 C           0.2823   -1.3722    2.2645 C.ar    1  UNL1        0.0071
      4 N          -0.1943   -0.9022    3.4554 N.ar    1  UNL1       -0.3454
      5 C          -0.2583    0.4607    3.4209 C.ar    1  UNL1        0.1434
      6 N          -0.6295    1.2093    4.4679 N.ar    1  UNL1       -0.2178
      7 C          -0.5552    2.5141    4.1806 C.ar    1  UNL1        0.1204
      8 N          -0.1892    3.0862    3.0198 N.ar    1  UNL1       -0.2200
      9 C           0.1405    2.2990    1.9600 C.ar    1  UNL1        0.1342
     10 N           0.5310    2.9227    0.7976 N.pl3   1  UNL1       -0.3086
     11 C          -0.2078    2.7546   -0.4554 C.3     1  UNL1        0.0426
     12 C          -0.7655    4.0881   -1.0032 C.3     1  UNL1        0.0765
     13 N           0.2808    5.1508   -1.0190 N.pl3   1  UNL1       -0.2183
     14 C           0.6481    5.7617   -2.2269 C.cat   1  UNL1        0.3883
     15 N          -0.0601    5.4537   -3.2901 N.2     1  UNL1        0.0068
     16 C           0.2258    6.0222   -4.4612 C.1     1  UNL1        0.2951
     17 N           0.4960    6.5508   -5.4598 N.1     1  UNL1       -0.1505
     18 N           1.6567    6.7092   -2.2809 N.pl3   1  UNL1       -0.2052
     19 C           2.7839    6.8992   -1.4676 C.ar    1  UNL1        0.0924
     20 C           3.5536    5.8232   -1.0317 C.ar    1  UNL1       -0.0252
     21 C           4.2987    5.9507    0.1306 C.ar    1  UNL1       -0.0580
     22 C           4.3326    7.1731    0.8058 C.ar    1  UNL1       -0.0494
     23 C           3.7724    8.3292    0.2608 C.ar    1  UNL1        0.0398
     24 C           3.8623    9.7212    0.8105 C.2     1  UNL1        0.2444
     25 O           3.2700   10.6243    0.2108 O.2     1  UNL1       -0.2702
     26 N           4.5752   10.1151    1.9125 N.am    1  UNL1       -0.3090
     27 C           5.3174    9.4413    2.9679 C.3     1  UNL1        0.0178
     28 C           6.7822    9.8547    2.9590 C.3     1  UNL1       -0.0469
     29 C           4.6428    9.6828    4.3120 C.3     1  UNL1       -0.0469
     30 C           2.9953    8.1677   -0.9014 C.ar    1  UNL1       -0.0131
     31 C           0.8109    5.3782    0.3498 C.3     1  UNL1        0.0845
     32 C          -0.2254    5.9782    1.2992 C.3     1  UNL1       -0.0315
     33 C           1.4356    4.0669    0.8960 C.3     1  UNL1        0.0452
     34 C           0.1395    0.8963    2.1614 C.ar    1  UNL1        0.0614
     35 H           0.6568    0.2885   -0.6291 H       1  UNL1        0.0278
     36 H           0.9948   -1.4015   -0.3282 H       1  UNL1        0.0278
     37 H           2.1954   -0.1792    0.1245 H       1  UNL1        0.0278
     38 H           0.4410   -2.4322    2.1136 H       1  UNL1        0.0810
     39 H          -0.4279   -1.4534    4.2682 H       1  UNL1        0.1668
     40 H          -0.8177    3.1954    4.9839 H       1  UNL1        0.1048
     41 H           0.4808    2.3531   -1.2067 H       1  UNL1        0.0493
     42 H          -1.0366    2.0450   -0.3446 H       1  UNL1        0.0493
     43 H          -1.1861    3.8943   -1.9949 H       1  UNL1        0.0650
     44 H          -1.6099    4.4233   -0.3913 H       1  UNL1        0.0650
     45 H           1.6011    7.3975   -3.0251 H       1  UNL1        0.2512
     46 H           3.4522    4.8491   -1.5031 H       1  UNL1        0.0650
     47 H           4.7702    5.0774    0.5756 H       1  UNL1        0.0619
     48 H           4.7780    7.1229    1.7787 H       1  UNL1        0.0625
     49 H           4.5096   11.1233    2.0114 H       1  UNL1        0.1493
     50 H           5.3122    8.3779    2.8287 H       1  UNL1        0.0493
     51 H           6.9101   10.9060    3.2324 H       1  UNL1        0.0247
     52 H           7.3527    9.2417    3.6654 H       1  UNL1        0.0247
     53 H           7.2181    9.7082    1.9640 H       1  UNL1        0.0247
     54 H           3.5714    9.4573    4.2507 H       1  UNL1        0.0247
     55 H           5.0766    9.0338    5.0798 H       1  UNL1        0.0247
     56 H           4.7485   10.7224    4.6355 H       1  UNL1        0.0247
     57 H           2.4479    9.0203   -1.3041 H       1  UNL1        0.0658
     58 H           1.5796    6.1330    0.3672 H       1  UNL1        0.0684
     59 H           0.2462    6.2069    2.2629 H       1  UNL1        0.0262
     60 H          -0.6151    6.9166    0.8912 H       1  UNL1        0.0262
     61 H          -1.0686    5.3147    1.4983 H       1  UNL1        0.0262
     62 H           2.3070    3.8005    0.2884 H       1  UNL1        0.0496
     63 H           1.8219    4.2183    1.9119 H       1  UNL1        0.0496
@<TRIPOS>BOND
     1     1     2    1
     2     2     3   ar
     3     3     4   ar
     4     4     5   ar
     5     5     6   ar
     6     6     7   ar
     7     7     8   ar
     8     8     9   ar
     9     9    10    1
    10    10    11    1
    11    11    12    1
    12    12    13    1
    13    13    14    1
    14    14    15    2
    15    15    16    1
    16    16    17    3
    17    14    18    1
    18    18    19    1
    19    19    20   ar
    20    20    21   ar
    21    21    22   ar
    22    22    23   ar
    23    23    24    1
    24    24    25    2
    25    24    26   am
    26    26    27    1
    27    27    28    1
    28    27    29    1
    29    23    30   ar
    30    19    30   ar
    31    13    31    1
    32    31    32    1
    33    31    33    1
    34    10    33    1
    35     9    34   ar
    36     2    34   ar
    37     5    34   ar
    38     1    35    1
    39     1    36    1
    40     1    37    1
    41     3    38    1
    42     4    39    1
    43     7    40    1
    44    11    41    1
    45    11    42    1
    46    12    43    1
    47    12    44    1
    48    18    45    1
    49    20    46    1
    50    21    47    1
    51    22    48    1
    52    26    49    1
    53    27    50    1
    54    28    51    1
    55    28    52    1
    56    28    53    1
    57    29    54    1
    58    29    55    1
    59    29    56    1
    60    30    57    1
    61    31    58    1
    62    32    59    1
    63    32    60    1
    64    32    61    1
    65    33    62    1
    66    33    63    1
@<TRIPOS>MOLECULE
mol_CHEMBL585734_24
 63 66 0 0 0
SMALL
GASTEIGER

@<TRIPOS>ATOM
      1 C           1.1799   -0.1304   -0.1213 C.3     1  UNL1       -0.0376
      2 C           0.5931   -1.4471    0.2366 C.ar    1  UNL1       -0.0206
      3 C           1.1218   -2.6790   -0.1121 C.ar    1  UNL1        0.0071
      4 N           0.3502   -3.6534    0.4595 N.ar    1  UNL1       -0.3454
      5 C          -0.6613   -3.0807    1.1755 C.ar    1  UNL1        0.1434
      6 N          -1.5485   -3.7759    1.9000 N.ar    1  UNL1       -0.2178
      7 C          -2.3965   -2.9594    2.5389 C.ar    1  UNL1        0.1204
      8 N          -2.4397   -1.6156    2.5005 N.ar    1  UNL1       -0.2200
      9 C          -1.5535   -0.9422    1.7192 C.ar    1  UNL1        0.1342
     10 N          -1.6067    0.4296    1.7249 N.pl3   1  UNL1       -0.3086
     11 C          -1.7992    1.2244    0.5123 C.3     1  UNL1        0.0426
     12 C          -3.0185    2.1763    0.6168 C.3     1  UNL1        0.0765
     13 N          -3.0500    2.9135    1.9150 N.pl3   1  UNL1       -0.2183
     14 C          -3.1119    4.3143    1.9333 C.cat   1  UNL1        0.3883
     15 N          -3.2692    4.9218    0.7793 N.2     1  UNL1        0.0068
     16 C          -3.3503    6.2515    0.7413 C.1     1  UNL1        0.2951
     17 N          -3.4308    7.4108    0.7513 N.1     1  UNL1       -0.1505
     18 N          -3.0832    5.0183    3.1263 N.pl3   1  UNL1       -0.2052
     19 C          -2.5345    4.6783    4.3726 C.ar    1  UNL1        0.0924
     20 C          -1.2704    4.1000    4.4728 C.ar    1  UNL1       -0.0252
     21 C          -0.9524    3.3490    5.5959 C.ar    1  UNL1       -0.0580
     22 C          -1.8682    3.2342    6.6474 C.ar    1  UNL1       -0.0494
     23 C          -3.0696    3.9468    6.6537 C.ar    1  UNL1        0.0398
     24 C          -4.1024    3.9683    7.7409 C.2     1  UNL1        0.2444
     25 O          -5.0725    4.7215    7.6065 O.2     1  UNL1       -0.2702
     26 N          -4.0852    3.2364    8.8985 N.am    1  UNL1       -0.3090
     27 C          -3.2497    2.1809    9.4527 C.3     1  UNL1        0.0178
     28 C          -2.5358    2.6697   10.7073 C.3     1  UNL1       -0.0469
     29 C          -4.0800    0.9289    9.7064 C.3     1  UNL1       -0.0469
     30 C          -3.3732    4.6970    5.5003 C.ar    1  UNL1       -0.0131
     31 C          -3.0404    1.9661    3.0593 C.3     1  UNL1        0.0845
     32 C          -4.3121    1.1257    3.1549 C.3     1  UNL1       -0.0315
     33 C          -1.7557    1.1071    3.0068 C.3     1  UNL1        0.0452
     34 C          -0.5798   -1.7014    1.0314 C.ar    1  UNL1        0.0614
     35 H           1.0750    0.5852    0.6991 H       1  UNL1        0.0278
     36 H           0.6934    0.2739   -1.0139 H       1  UNL1        0.0278
     37 H           2.2509   -0.2235   -0.3301 H       1  UNL1        0.0278
     38 H           1.9964   -2.9396   -0.6939 H       1  UNL1        0.0810
     39 H           0.5064   -4.6495    0.4099 H       1  UNL1        0.1668
     40 H          -3.1376   -3.4391    3.1706 H       1  UNL1        0.1048
     41 H          -0.9048    1.8357    0.3501 H       1  UNL1        0.0493
     42 H          -1.9290    0.5869   -0.3706 H       1  UNL1        0.0493
     43 H          -2.9903    2.8477   -0.2473 H       1  UNL1        0.0650
     44 H          -3.9476    1.6045    0.5140 H       1  UNL1        0.0650
     45 H          -3.5364    5.9266    3.1378 H       1  UNL1        0.2512
     46 H          -0.5906    4.1182    3.6245 H       1  UNL1        0.0650
     47 H          -0.0283    2.7758    5.6222 H       1  UNL1        0.0619
     48 H          -1.5715    2.5520    7.4200 H       1  UNL1        0.0625
     49 H          -4.8817    3.4981    9.4710 H       1  UNL1        0.1493
     50 H          -2.4998    1.8734    8.7455 H       1  UNL1        0.0493
     51 H          -3.2388    2.8519   11.5271 H       1  UNL1        0.0247
     52 H          -1.8016    1.9307   11.0447 H       1  UNL1        0.0247
     53 H          -2.0028    3.6076   10.5127 H       1  UNL1        0.0247
     54 H          -4.6430    0.6558    8.8062 H       1  UNL1        0.0247
     55 H          -3.4276    0.0865    9.9599 H       1  UNL1        0.0247
     56 H          -4.7956    1.0716   10.5211 H       1  UNL1        0.0247
     57 H          -4.3348    5.2057    5.4281 H       1  UNL1        0.0658
     58 H          -3.0427    2.4695    4.0103 H       1  UNL1        0.0684
     59 H          -4.2747    0.5042    4.0583 H       1  UNL1        0.0262
     60 H          -5.1901    1.7745    3.2368 H       1  UNL1        0.0262
     61 H          -4.4563    0.4575    2.3041 H       1  UNL1        0.0262
     62 H          -0.8774    1.7553    3.1065 H       1  UNL1        0.0496
     63 H          -1.7151    0.4208    3.8619 H       1  UNL1        0.0496
@<TRIPOS>BOND
     1     1     2    1
     2     2     3   ar
     3     3     4   ar
     4     4     5   ar
     5     5     6   ar
     6     6     7   ar
     7     7     8   ar
     8     8     9   ar
     9     9    10    1
    10    10    11    1
    11    11    12    1
    12    12    13    1
    13    13    14    1
    14    14    15    2
    15    15    16    1
    16    16    17    3
    17    14    18    1
    18    18    19    1
    19    19    20   ar
    20    20    21   ar
    21    21    22   ar
    22    22    23   ar
    23    23    24    1
    24    24    25    2
    25    24    26   am
    26    26    27    1
    27    27    28    1
    28    27    29    1
    29    23    30   ar
    30    19    30   ar
    31    13    31    1
    32    31    32    1
    33    31    33    1
    34    10    33    1
    35     9    34   ar
    36     2    34   ar
    37     5    34   ar
    38     1    35    1
    39     1    36    1
    40     1    37    1
    41     3    38    1
    42     4    39    1
    43     7    40    1
    44    11    41    1
    45    11    42    1
    46    12    43    1
    47    12    44    1
    48    18    45    1
    49    20    46    1
    50    21    47    1
    51    22    48    1
    52    26    49    1
    53    27    50    1
    54    28    51    1
    55    28    52    1
    56    28    53    1
    57    29    54    1
    58    29    55    1
    59    29    56    1
    60    30    57    1
    61    31    58    1
    62    32    59    1
    63    32    60    1
    64    32    61    1
    65    33    62    1
    66    33    63    1
