mol_CHEMBL4062946_0


 37 40  0  0  0  0  0  0  0  0999 V2000
   10.0585   12.0620  -19.2110 C   0  0  0  0  0  0  0  0  0  0  0  0
    8.9948   11.6915  -19.8698 N   0  0  0  0  0  0  0  0  0  0  0  0
   10.9130   13.7097  -15.5227 N   0  0  0  0  0  0  0  0  0  0  0  0
   11.4282   12.4230  -15.9731 C   0  0  0  0  0  0  0  0  0  0  0  0
   10.3525   11.6628  -16.7637 C   0  0  0  0  0  0  0  0  0  0  0  0
    9.8412   12.4923  -17.8954 N   0  0  0  0  0  0  0  0  0  0  0  0
    9.2548   13.7779  -17.4253 C   0  0  0  0  0  0  0  0  0  0  0  0
    7.9127   13.5350  -16.7332 C   0  0  0  0  0  0  0  0  0  0  0  0
   10.2398   14.5588  -16.5010 C   0  0  0  0  0  0  0  0  0  0  0  0
   13.6081   15.7625  -15.3949 C   0  0  0  0  0  0  0  0  0  0  0  0
   13.0983   15.5848  -14.0112 C   0  0  0  0  0  0  0  0  0  0  0  0
   13.6507   16.1577  -12.8780 C   0  0  0  0  0  0  0  0  0  0  0  0
   12.8771   15.8132  -11.8036 N   0  0  0  0  0  0  0  0  0  0  0  0
   11.8321   15.0365  -12.2166 C   0  0  0  0  0  0  0  0  0  0  0  0
   10.8776   14.5712  -11.4000 N   0  0  0  0  0  0  0  0  0  0  0  0
    9.9575   13.8721  -12.0808 C   0  0  0  0  0  0  0  0  0  0  0  0
    9.9205   13.6058  -13.4019 N   0  0  0  0  0  0  0  0  0  0  0  0
   10.9324   14.0501  -14.1921 C   0  0  0  0  0  0  0  0  0  0  0  0
   11.9413   14.8383  -13.5868 C   0  0  0  0  0  0  0  0  0  0  0  0
   13.0196   16.1002  -10.8462 H   0  0  0  0  0  0  0  0  0  0  0  0
    9.0134   11.1636  -21.0899 C   0  0  0  0  0  0  0  0  0  0  0  0
    8.9760   10.7659  -22.1799 N   0  0  0  0  0  0  0  0  0  0  0  0
   11.3803   12.0659  -19.6122 N   0  0  0  0  0  0  0  0  0  0  0  0
   11.7709   11.1946  -19.9297 H   0  0  0  0  0  0  0  0  0  0  0  0
   12.2078   13.1644  -19.9301 C   0  0  0  0  0  0  0  0  0  0  0  0
   11.8223   14.0214  -20.9719 C   0  0  0  0  0  0  0  0  0  0  0  0
   12.5045   15.2164  -21.2065 C   0  0  0  0  0  0  0  0  0  0  0  0
   13.5767   15.5752  -20.3919 C   0  0  0  0  0  0  0  0  0  0  0  0
   13.9962   14.7247  -19.3614 C   0  0  0  0  0  0  0  0  0  0  0  0
   13.3340   13.5015  -19.1655 C   0  0  0  0  0  0  0  0  0  0  0  0
   15.1191   15.1832  -18.4889 C   0  0  0  0  0  0  0  0  0  0  0  0
   15.5375   14.4534  -17.5957 O   0  0  0  0  0  0  0  0  0  0  0  0
   15.6637   16.4211  -18.7690 N   0  0  0  0  0  0  0  0  0  0  0  0
   15.3990   16.8965  -19.6202 H   0  0  0  0  0  0  0  0  0  0  0  0
   16.7941   16.9548  -18.0213 C   0  0  0  0  0  0  0  0  0  0  0  0
   17.7651   17.6763  -18.9536 C   0  0  0  0  0  0  0  0  0  0  0  0
   16.3026   17.9003  -16.9286 C   0  0  0  0  0  0  0  0  0  0  0  0
 10 11  1  0  0  0
 11 12  2  0  0  0
 12 13  1  0  0  0
 13 14  1  0  0  0
 14 15  2  0  0  0
 15 16  1  0  0  0
 16 17  2  0  0  0
 17 18  1  0  0  0
 18  3  1  0  0  0
  3  4  1  0  0  0
  4  5  1  0  0  0
  5  6  1  0  0  0
  6  1  1  0  0  0
  1  2  2  0  0  0
  2 21  1  0  0  0
 21 22  3  0  0  0
  1 23  1  0  0  0
 23 25  1  0  0  0
 25 26  2  0  0  0
 26 27  1  0  0  0
 27 28  2  0  0  0
 28 29  1  0  0  0
 29 31  1  0  0  0
 31 32  2  0  0  0
 31 33  1  0  0  0
 33 35  1  0  0  0
 35 36  1  0  0  0
 35 37  1  0  0  0
 29 30  2  0  0  0
 25 30  1  0  0  0
  6  7  1  0  0  0
  7  8  1  0  0  0
  7  9  1  0  0  0
  3  9  1  0  0  0
 18 19  2  0  0  0
 11 19  1  0  0  0
 14 19  1  0  0  0
 13 20  1  0  0  0
 23 24  1  0  0  0
 33 34  1  0  0  0
M  END
> <minimizedAffinity>
-9.20881

$$$$
mol_CHEMBL4062806_1


 37 40  0  0  0  0  0  0  0  0999 V2000
   10.7766   13.0599  -19.5872 C   0  0  0  0  0  0  0  0  0  0  0  0
   11.4436   13.9877  -20.2355 N   0  0  0  0  0  0  0  0  0  0  0  0
   11.6184   14.2171  -15.6765 N   0  0  0  0  0  0  0  0  0  0  0  0
   12.3113   13.0886  -16.2963 C   0  0  0  0  0  0  0  0  0  0  0  0
   11.3989   12.3057  -17.2733 C   0  0  0  0  0  0  0  0  0  0  0  0
   10.6582   13.2147  -18.1985 N   0  0  0  0  0  0  0  0  0  0  0  0
    9.8451   14.1954  -17.4342 C   0  0  0  0  0  0  0  0  0  0  0  0
    8.7037   13.5496  -16.6502 C   0  0  0  0  0  0  0  0  0  0  0  0
   10.7746   15.0456  -16.5326 C   0  0  0  0  0  0  0  0  0  0  0  0
   14.3480   16.1643  -15.0201 C   0  0  0  0  0  0  0  0  0  0  0  0
   13.6525   15.8830  -13.7384 C   0  0  0  0  0  0  0  0  0  0  0  0
   14.0433   16.3703  -12.5018 C   0  0  0  0  0  0  0  0  0  0  0  0
   13.1330   15.9543  -11.5702 N   0  0  0  0  0  0  0  0  0  0  0  0
   12.1596   15.2128  -12.1750 C   0  0  0  0  0  0  0  0  0  0  0  0
   11.1012   14.7080  -11.5270 N   0  0  0  0  0  0  0  0  0  0  0  0
   10.2791   14.0686  -12.3679 C   0  0  0  0  0  0  0  0  0  0  0  0
   10.4218   13.8969  -13.6938 N   0  0  0  0  0  0  0  0  0  0  0  0
   11.5283   14.3860  -14.3164 C   0  0  0  0  0  0  0  0  0  0  0  0
   12.4548   15.1098  -13.5294 C   0  0  0  0  0  0  0  0  0  0  0  0
   13.1358   16.1778  -10.5857 H   0  0  0  0  0  0  0  0  0  0  0  0
   11.6078   13.8820  -21.5538 C   0  0  0  0  0  0  0  0  0  0  0  0
   11.7734   13.7514  -22.6962 N   0  0  0  0  0  0  0  0  0  0  0  0
   10.2834   11.9376  -20.2329 N   0  0  0  0  0  0  0  0  0  0  0  0
   10.9654   11.3142  -20.6532 H   0  0  0  0  0  0  0  0  0  0  0  0
    8.9667   11.4944  -20.4357 C   0  0  0  0  0  0  0  0  0  0  0  0
    8.0867   11.3201  -19.3699 C   0  0  0  0  0  0  0  0  0  0  0  0
    7.0399   10.4195  -19.4962 C   0  0  0  0  0  0  0  0  0  0  0  0
    6.8311    9.7618  -20.7099 C   0  0  0  0  0  0  0  0  0  0  0  0
    7.5300   10.1138  -21.8646 C   0  0  0  0  0  0  0  0  0  0  0  0
    8.6132   10.9977  -21.7024 C   0  0  0  0  0  0  0  0  0  0  0  0
    7.2848    9.6043  -23.2531 C   0  0  0  0  0  0  0  0  0  0  0  0
    7.5376    8.4192  -23.4929 O   0  0  0  0  0  0  0  0  0  0  0  0
    6.8392   10.3416  -24.3197 N   0  0  0  0  0  0  0  0  0  0  0  0
    6.8322    9.7595  -25.1512 H   0  0  0  0  0  0  0  0  0  0  0  0
    6.3255   11.6908  -24.5100 C   0  0  0  0  0  0  0  0  0  0  0  0
    7.3721   12.5988  -25.1390 C   0  0  0  0  0  0  0  0  0  0  0  0
    5.0294   11.6413  -25.3091 C   0  0  0  0  0  0  0  0  0  0  0  0
 10 11  1  0  0  0
 11 12  2  0  0  0
 12 13  1  0  0  0
 13 14  1  0  0  0
 14 15  2  0  0  0
 15 16  1  0  0  0
 16 17  2  0  0  0
 17 18  1  0  0  0
 18  3  1  0  0  0
  3  4  1  0  0  0
  4  5  1  0  0  0
  5  6  1  0  0  0
  6  1  1  0  0  0
  1  2  2  0  0  0
  2 21  1  0  0  0
 21 22  3  0  0  0
  1 23  1  0  0  0
 23 25  1  0  0  0
 25 26  2  0  0  0
 26 27  1  0  0  0
 27 28  2  0  0  0
 28 29  1  0  0  0
 29 31  1  0  0  0
 31 32  2  0  0  0
 31 33  1  0  0  0
 33 35  1  0  0  0
 35 36  1  0  0  0
 35 37  1  0  0  0
 29 30  2  0  0  0
 25 30  1  0  0  0
  6  7  1  0  0  0
  7  8  1  0  0  0
  7  9  1  0  0  0
  3  9  1  0  0  0
 18 19  2  0  0  0
 11 19  1  0  0  0
 14 19  1  0  0  0
 13 20  1  0  0  0
 23 24  1  0  0  0
 33 34  1  0  0  0
M  END
> <minimizedAffinity>
-9.35053

$$$$
mol_CHEMBL4085457_2


 37 40  0  0  0  0  0  0  0  0999 V2000
   12.2885   13.4763  -19.1503 C   0  0  0  0  0  0  0  0  0  0  0  0
   13.0090   14.2572  -19.9247 N   0  0  0  0  0  0  0  0  0  0  0  0
   11.1763   13.9870  -15.1733 N   0  0  0  0  0  0  0  0  0  0  0  0
   11.0125   15.0623  -16.1487 C   0  0  0  0  0  0  0  0  0  0  0  0
   12.1374   15.0623  -17.2129 C   0  0  0  0  0  0  0  0  0  0  0  0
   12.3787   13.6978  -17.7690 N   0  0  0  0  0  0  0  0  0  0  0  0
   12.7097   12.7402  -16.6822 C   0  0  0  0  0  0  0  0  0  0  0  0
   14.0400   13.0441  -15.9943 C   0  0  0  0  0  0  0  0  0  0  0  0
   11.5344   12.6661  -15.6781 C   0  0  0  0  0  0  0  0  0  0  0  0
   13.8807   16.0028  -14.6286 C   0  0  0  0  0  0  0  0  0  0  0  0
   13.2695   15.6782  -13.3149 C   0  0  0  0  0  0  0  0  0  0  0  0
   13.7281   16.1324  -12.0895 C   0  0  0  0  0  0  0  0  0  0  0  0
   12.8661   15.6966  -11.1216 N   0  0  0  0  0  0  0  0  0  0  0  0
   11.8555   14.9784  -11.6929 C   0  0  0  0  0  0  0  0  0  0  0  0
   10.8227   14.4724  -11.0056 N   0  0  0  0  0  0  0  0  0  0  0  0
    9.9563   13.8560  -11.8195 C   0  0  0  0  0  0  0  0  0  0  0  0
   10.0420   13.6969  -13.1523 N   0  0  0  0  0  0  0  0  0  0  0  0
   11.1277   14.1803  -13.8153 C   0  0  0  0  0  0  0  0  0  0  0  0
   12.0868   14.8959  -13.0608 C   0  0  0  0  0  0  0  0  0  0  0  0
   12.9220   15.8961  -10.1336 H   0  0  0  0  0  0  0  0  0  0  0  0
   12.9865   14.0815  -21.2456 C   0  0  0  0  0  0  0  0  0  0  0  0
   12.9597   13.8805  -22.3896 N   0  0  0  0  0  0  0  0  0  0  0  0
   11.5340   12.4408  -19.6762 N   0  0  0  0  0  0  0  0  0  0  0  0
   12.0450   11.6496  -20.0554 H   0  0  0  0  0  0  0  0  0  0  0  0
   10.1477   12.2386  -19.7193 C   0  0  0  0  0  0  0  0  0  0  0  0
    9.3131   12.6978  -18.7025 C   0  0  0  0  0  0  0  0  0  0  0  0
    8.0742   12.0997  -18.5206 C   0  0  0  0  0  0  0  0  0  0  0  0
    7.6423   11.0990  -19.3982 C   0  0  0  0  0  0  0  0  0  0  0  0
    8.3703   10.7603  -20.5409 C   0  0  0  0  0  0  0  0  0  0  0  0
    9.6313   11.3671  -20.6926 C   0  0  0  0  0  0  0  0  0  0  0  0
    7.9825    9.7823  -21.6094 C   0  0  0  0  0  0  0  0  0  0  0  0
    8.0475    8.5765  -21.3471 O   0  0  0  0  0  0  0  0  0  0  0  0
    7.5736   10.0823  -22.8812 N   0  0  0  0  0  0  0  0  0  0  0  0
    7.4360    9.2205  -23.3998 H   0  0  0  0  0  0  0  0  0  0  0  0
    7.2518   11.2980  -23.6129 C   0  0  0  0  0  0  0  0  0  0  0  0
    8.4884   11.8492  -24.3105 C   0  0  0  0  0  0  0  0  0  0  0  0
    6.1008   11.0393  -24.5765 C   0  0  0  0  0  0  0  0  0  0  0  0
 10 11  1  0  0  0
 11 12  2  0  0  0
 12 13  1  0  0  0
 13 14  1  0  0  0
 14 15  2  0  0  0
 15 16  1  0  0  0
 16 17  2  0  0  0
 17 18  1  0  0  0
 18  3  1  0  0  0
  3  4  1  0  0  0
  4  5  1  0  0  0
  5  6  1  0  0  0
  6  1  1  0  0  0
  1  2  2  0  0  0
  2 21  1  0  0  0
 21 22  3  0  0  0
  1 23  1  0  0  0
 23 25  1  0  0  0
 25 26  2  0  0  0
 26 27  1  0  0  0
 27 28  2  0  0  0
 28 29  1  0  0  0
 29 31  1  0  0  0
 31 32  2  0  0  0
 31 33  1  0  0  0
 33 35  1  0  0  0
 35 36  1  0  0  0
 35 37  1  0  0  0
 29 30  2  0  0  0
 25 30  1  0  0  0
  6  7  1  0  0  0
  7  8  1  0  0  0
  7  9  1  0  0  0
  3  9  1  0  0  0
 18 19  2  0  0  0
 11 19  1  0  0  0
 14 19  1  0  0  0
 13 20  1  0  0  0
 23 24  1  0  0  0
 33 34  1  0  0  0
M  END
> <minimizedAffinity>
-9.59700

$$$$
mol_CHEMBL4083165_3


 37 40  0  0  0  0  0  0  0  0999 V2000
   10.6902   14.0491  -14.1658 C   0  0  0  0  0  0  0  0  0  0  0  0
   10.1495   13.4326  -13.1389 N   0  0  0  0  0  0  0  0  0  0  0  0
   11.0544   13.4935  -18.2599 N   0  0  0  0  0  0  0  0  0  0  0  0
    9.9858   14.3079  -17.6771 C   0  0  0  0  0  0  0  0  0  0  0  0
    9.4671   13.7425  -16.3355 C   0  0  0  0  0  0  0  0  0  0  0  0
   10.5919   13.4143  -15.4127 N   0  0  0  0  0  0  0  0  0  0  0  0
   11.4990   12.4161  -16.0346 C   0  0  0  0  0  0  0  0  0  0  0  0
   10.8422   11.0492  -16.2229 C   0  0  0  0  0  0  0  0  0  0  0  0
   12.0838   12.9868  -17.3538 C   0  0  0  0  0  0  0  0  0  0  0  0
   13.5113   15.0698  -20.1017 C   0  0  0  0  0  0  0  0  0  0  0  0
   12.7605   14.1387  -20.9820 C   0  0  0  0  0  0  0  0  0  0  0  0
   13.0511   13.9335  -22.3214 C   0  0  0  0  0  0  0  0  0  0  0  0
   12.2283   12.9509  -22.7940 N   0  0  0  0  0  0  0  0  0  0  0  0
   11.4197   12.5041  -21.7894 C   0  0  0  0  0  0  0  0  0  0  0  0
   10.5495   11.4963  -21.9357 N   0  0  0  0  0  0  0  0  0  0  0  0
    9.9214   11.2281  -20.7850 C   0  0  0  0  0  0  0  0  0  0  0  0
   10.0638   11.8490  -19.6007 N   0  0  0  0  0  0  0  0  0  0  0  0
   10.9232   12.8988  -19.4937 C   0  0  0  0  0  0  0  0  0  0  0  0
   11.6803   13.2444  -20.6409 C   0  0  0  0  0  0  0  0  0  0  0  0
   12.2291   12.5639  -23.7264 H   0  0  0  0  0  0  0  0  0  0  0  0
   10.2341   13.9745  -11.9241 C   0  0  0  0  0  0  0  0  0  0  0  0
   10.3027   14.4055  -10.8476 N   0  0  0  0  0  0  0  0  0  0  0  0
   11.3976   15.2292  -14.0086 N   0  0  0  0  0  0  0  0  0  0  0  0
   10.8553   16.0851  -13.9462 H   0  0  0  0  0  0  0  0  0  0  0  0
   12.7769   15.4691  -13.9178 C   0  0  0  0  0  0  0  0  0  0  0  0
   13.3645   15.8812  -12.7241 C   0  0  0  0  0  0  0  0  0  0  0  0
   14.5564   16.5885  -12.7651 C   0  0  0  0  0  0  0  0  0  0  0  0
   15.1926   16.8112  -13.9887 C   0  0  0  0  0  0  0  0  0  0  0  0
   14.7559   16.2013  -15.1654 C   0  0  0  0  0  0  0  0  0  0  0  0
   13.5282   15.5160  -15.1042 C   0  0  0  0  0  0  0  0  0  0  0  0
   15.4262   16.2428  -16.5059 C   0  0  0  0  0  0  0  0  0  0  0  0
   15.4040   15.2217  -17.2009 O   0  0  0  0  0  0  0  0  0  0  0  0
   16.1066   17.3048  -17.0416 N   0  0  0  0  0  0  0  0  0  0  0  0
   16.5128   17.0290  -17.9300 H   0  0  0  0  0  0  0  0  0  0  0  0
   16.3150   18.6986  -16.6771 C   0  0  0  0  0  0  0  0  0  0  0  0
   17.6081   18.8739  -15.8938 C   0  0  0  0  0  0  0  0  0  0  0  0
   16.2538   19.5750  -17.9214 C   0  0  0  0  0  0  0  0  0  0  0  0
 10 11  1  0  0  0
 11 12  2  0  0  0
 12 13  1  0  0  0
 13 14  1  0  0  0
 14 15  2  0  0  0
 15 16  1  0  0  0
 16 17  2  0  0  0
 17 18  1  0  0  0
 18  3  1  0  0  0
  3  4  1  0  0  0
  4  5  1  0  0  0
  5  6  1  0  0  0
  6  1  1  0  0  0
  1  2  2  0  0  0
  2 21  1  0  0  0
 21 22  3  0  0  0
  1 23  1  0  0  0
 23 25  1  0  0  0
 25 26  2  0  0  0
 26 27  1  0  0  0
 27 28  2  0  0  0
 28 29  1  0  0  0
 29 31  1  0  0  0
 31 32  2  0  0  0
 31 33  1  0  0  0
 33 35  1  0  0  0
 35 36  1  0  0  0
 35 37  1  0  0  0
 29 30  2  0  0  0
 25 30  1  0  0  0
  6  7  1  0  0  0
  7  8  1  0  0  0
  7  9  1  0  0  0
  3  9  1  0  0  0
 18 19  2  0  0  0
 11 19  1  0  0  0
 14 19  1  0  0  0
 13 20  1  0  0  0
 23 24  1  0  0  0
 33 34  1  0  0  0
M  END
> <minimizedAffinity>
-9.66870

$$$$
mol_CHEMBL4074183_4


 37 40  0  0  0  0  0  0  0  0999 V2000
    9.8980   12.1914  -18.4430 C   0  0  0  0  0  0  0  0  0  0  0  0
    8.6577   12.1846  -18.0086 N   0  0  0  0  0  0  0  0  0  0  0  0
   11.5758   14.6841  -15.5349 N   0  0  0  0  0  0  0  0  0  0  0  0
   10.6520   15.2539  -16.5172 C   0  0  0  0  0  0  0  0  0  0  0  0
   10.6810   14.5272  -17.8981 C   0  0  0  0  0  0  0  0  0  0  0  0
   10.7964   13.0406  -17.7819 N   0  0  0  0  0  0  0  0  0  0  0  0
   11.9531   12.6719  -16.9358 C   0  0  0  0  0  0  0  0  0  0  0  0
   13.2966   13.0771  -17.5412 C   0  0  0  0  0  0  0  0  0  0  0  0
   11.7103   13.2319  -15.5189 C   0  0  0  0  0  0  0  0  0  0  0  0
   10.6569   14.3236  -12.2358 C   0  0  0  0  0  0  0  0  0  0  0  0
   11.9662   15.0205  -12.2939 C   0  0  0  0  0  0  0  0  0  0  0  0
   12.7422   15.3388  -11.1907 C   0  0  0  0  0  0  0  0  0  0  0  0
   13.8862   15.9423  -11.6304 N   0  0  0  0  0  0  0  0  0  0  0  0
   13.8730   16.0179  -12.9924 C   0  0  0  0  0  0  0  0  0  0  0  0
   14.8856   16.5239  -13.7090 N   0  0  0  0  0  0  0  0  0  0  0  0
   14.6495   16.4205  -15.0196 C   0  0  0  0  0  0  0  0  0  0  0  0
   13.5765   15.8819  -15.6197 N   0  0  0  0  0  0  0  0  0  0  0  0
   12.5541   15.3839  -14.8682 C   0  0  0  0  0  0  0  0  0  0  0  0
   12.6890   15.4567  -13.4614 C   0  0  0  0  0  0  0  0  0  0  0  0
   14.6580   16.2582  -11.0613 H   0  0  0  0  0  0  0  0  0  0  0  0
    7.7557   11.4137  -18.6161 C   0  0  0  0  0  0  0  0  0  0  0  0
    7.0018   10.7395  -19.1883 N   0  0  0  0  0  0  0  0  0  0  0  0
   10.2824   11.4473  -19.5514 N   0  0  0  0  0  0  0  0  0  0  0  0
   10.4126   10.4505  -19.4093 H   0  0  0  0  0  0  0  0  0  0  0  0
   10.4671   11.8126  -20.8955 C   0  0  0  0  0  0  0  0  0  0  0  0
    9.5191   11.5035  -21.8685 C   0  0  0  0  0  0  0  0  0  0  0  0
    9.9166   11.3959  -23.1943 C   0  0  0  0  0  0  0  0  0  0  0  0
   11.2374   11.6778  -23.5552 C   0  0  0  0  0  0  0  0  0  0  0  0
   12.1490   12.2078  -22.6409 C   0  0  0  0  0  0  0  0  0  0  0  0
   11.7311   12.2806  -21.2968 C   0  0  0  0  0  0  0  0  0  0  0  0
   13.5493   12.6639  -22.9247 C   0  0  0  0  0  0  0  0  0  0  0  0
   14.3295   11.8575  -23.4419 O   0  0  0  0  0  0  0  0  0  0  0  0
   14.0805   13.8950  -22.6423 N   0  0  0  0  0  0  0  0  0  0  0  0
   15.0668   13.8953  -22.8824 H   0  0  0  0  0  0  0  0  0  0  0  0
   13.5690   15.1679  -22.1538 C   0  0  0  0  0  0  0  0  0  0  0  0
   13.6866   15.2547  -20.6377 C   0  0  0  0  0  0  0  0  0  0  0  0
   14.2728   16.3190  -22.8616 C   0  0  0  0  0  0  0  0  0  0  0  0
 10 11  1  0  0  0
 11 12  2  0  0  0
 12 13  1  0  0  0
 13 14  1  0  0  0
 14 15  2  0  0  0
 15 16  1  0  0  0
 16 17  2  0  0  0
 17 18  1  0  0  0
 18  3  1  0  0  0
  3  4  1  0  0  0
  4  5  1  0  0  0
  5  6  1  0  0  0
  6  1  1  0  0  0
  1  2  2  0  0  0
  2 21  1  0  0  0
 21 22  3  0  0  0
  1 23  1  0  0  0
 23 25  1  0  0  0
 25 26  2  0  0  0
 26 27  1  0  0  0
 27 28  2  0  0  0
 28 29  1  0  0  0
 29 31  1  0  0  0
 31 32  2  0  0  0
 31 33  1  0  0  0
 33 35  1  0  0  0
 35 36  1  0  0  0
 35 37  1  0  0  0
 29 30  2  0  0  0
 25 30  1  0  0  0
  6  7  1  0  0  0
  7  8  1  0  0  0
  7  9  1  0  0  0
  3  9  1  0  0  0
 18 19  2  0  0  0
 11 19  1  0  0  0
 14 19  1  0  0  0
 13 20  1  0  0  0
 23 24  1  0  0  0
 33 34  1  0  0  0
M  END
> <minimizedAffinity>
-9.46661

$$$$
mol_CHEMBL4069969_5


 37 40  0  0  0  0  0  0  0  0999 V2000
   10.6804   14.0701  -14.1596 C   0  0  0  0  0  0  0  0  0  0  0  0
   10.1387   13.4398  -13.1421 N   0  0  0  0  0  0  0  0  0  0  0  0
   10.9741   13.4445  -18.2679 N   0  0  0  0  0  0  0  0  0  0  0  0
    9.9390   14.3134  -17.7100 C   0  0  0  0  0  0  0  0  0  0  0  0
    9.4391   13.8187  -16.3293 C   0  0  0  0  0  0  0  0  0  0  0  0
   10.5675   13.4620  -15.4181 N   0  0  0  0  0  0  0  0  0  0  0  0
   11.4375   12.4285  -16.0362 C   0  0  0  0  0  0  0  0  0  0  0  0
   10.7392   11.0809  -16.2122 C   0  0  0  0  0  0  0  0  0  0  0  0
   12.0187   12.9713  -17.3651 C   0  0  0  0  0  0  0  0  0  0  0  0
   13.4496   15.0496  -19.9842 C   0  0  0  0  0  0  0  0  0  0  0  0
   12.7789   14.1003  -20.9085 C   0  0  0  0  0  0  0  0  0  0  0  0
   13.1392   13.8916  -22.2298 C   0  0  0  0  0  0  0  0  0  0  0  0
   12.3407   12.9064  -22.7412 N   0  0  0  0  0  0  0  0  0  0  0  0
   11.4748   12.4692  -21.7808 C   0  0  0  0  0  0  0  0  0  0  0  0
   10.6000   11.4720  -21.9686 N   0  0  0  0  0  0  0  0  0  0  0  0
    9.9121   11.2148  -20.8493 C   0  0  0  0  0  0  0  0  0  0  0  0
   10.0110   11.8301  -19.6578 N   0  0  0  0  0  0  0  0  0  0  0  0
   10.8796   12.8668  -19.5103 C   0  0  0  0  0  0  0  0  0  0  0  0
   11.6850   13.2077  -20.6222 C   0  0  0  0  0  0  0  0  0  0  0  0
   12.3879   12.5169  -23.6713 H   0  0  0  0  0  0  0  0  0  0  0  0
   10.2335   13.9598  -11.9187 C   0  0  0  0  0  0  0  0  0  0  0  0
   10.3428   14.3786  -10.8407 N   0  0  0  0  0  0  0  0  0  0  0  0
   11.4012   15.2407  -13.9865 N   0  0  0  0  0  0  0  0  0  0  0  0
   10.8675   16.1013  -13.9145 H   0  0  0  0  0  0  0  0  0  0  0  0
   12.7845   15.4679  -13.9052 C   0  0  0  0  0  0  0  0  0  0  0  0
   13.3852   15.8711  -12.7147 C   0  0  0  0  0  0  0  0  0  0  0  0
   14.5746   16.5823  -12.7630 C   0  0  0  0  0  0  0  0  0  0  0  0
   15.1963   16.8150  -13.9914 C   0  0  0  0  0  0  0  0  0  0  0  0
   14.7575   16.1996  -15.1637 C   0  0  0  0  0  0  0  0  0  0  0  0
   13.5279   15.5179  -15.0973 C   0  0  0  0  0  0  0  0  0  0  0  0
   15.4302   16.2367  -16.5031 C   0  0  0  0  0  0  0  0  0  0  0  0
   15.4170   15.2106  -17.1909 O   0  0  0  0  0  0  0  0  0  0  0  0
   16.1095   17.2997  -17.0398 N   0  0  0  0  0  0  0  0  0  0  0  0
   16.5218   17.0227  -17.9250 H   0  0  0  0  0  0  0  0  0  0  0  0
   16.3055   18.6975  -16.6815 C   0  0  0  0  0  0  0  0  0  0  0  0
   17.5674   18.8851  -15.8519 C   0  0  0  0  0  0  0  0  0  0  0  0
   16.2913   19.5591  -17.9379 C   0  0  0  0  0  0  0  0  0  0  0  0
 10 11  1  0  0  0
 11 12  2  0  0  0
 12 13  1  0  0  0
 13 14  1  0  0  0
 14 15  2  0  0  0
 15 16  1  0  0  0
 16 17  2  0  0  0
 17 18  1  0  0  0
 18  3  1  0  0  0
  3  4  1  0  0  0
  4  5  1  0  0  0
  5  6  1  0  0  0
  6  1  1  0  0  0
  1  2  2  0  0  0
  2 21  1  0  0  0
 21 22  3  0  0  0
  1 23  1  0  0  0
 23 25  1  0  0  0
 25 26  2  0  0  0
 26 27  1  0  0  0
 27 28  2  0  0  0
 28 29  1  0  0  0
 29 31  1  0  0  0
 31 32  2  0  0  0
 31 33  1  0  0  0
 33 35  1  0  0  0
 35 36  1  0  0  0
 35 37  1  0  0  0
 29 30  2  0  0  0
 25 30  1  0  0  0
  6  7  1  0  0  0
  7  8  1  0  0  0
  7  9  1  0  0  0
  3  9  1  0  0  0
 18 19  2  0  0  0
 11 19  1  0  0  0
 14 19  1  0  0  0
 13 20  1  0  0  0
 23 24  1  0  0  0
 33 34  1  0  0  0
M  END
> <minimizedAffinity>
-9.67994

$$$$
mol_CHEMBL4095629_6


 37 40  0  0  0  0  0  0  0  0999 V2000
   11.3020   12.6387  -19.5841 C   0  0  0  0  0  0  0  0  0  0  0  0
   12.2665   13.2939  -20.1894 N   0  0  0  0  0  0  0  0  0  0  0  0
   11.9204   13.8535  -15.6462 N   0  0  0  0  0  0  0  0  0  0  0  0
   12.2641   12.4998  -16.0790 C   0  0  0  0  0  0  0  0  0  0  0  0
   11.2941   11.9660  -17.1634 C   0  0  0  0  0  0  0  0  0  0  0  0
   11.0521   12.9682  -18.2442 N   0  0  0  0  0  0  0  0  0  0  0  0
   10.5253   14.2368  -17.6786 C   0  0  0  0  0  0  0  0  0  0  0  0
    9.1320   14.0912  -17.0685 C   0  0  0  0  0  0  0  0  0  0  0  0
   11.5519   14.8194  -16.6763 C   0  0  0  0  0  0  0  0  0  0  0  0
   14.5364   15.9443  -14.9961 C   0  0  0  0  0  0  0  0  0  0  0  0
   13.7284   15.8078  -13.7576 C   0  0  0  0  0  0  0  0  0  0  0  0
   13.9905   16.4586  -12.5630 C   0  0  0  0  0  0  0  0  0  0  0  0
   13.0020   16.1375  -11.6745 N   0  0  0  0  0  0  0  0  0  0  0  0
   12.1036   15.2978  -12.2669 C   0  0  0  0  0  0  0  0  0  0  0  0
   10.9955   14.8496  -11.6617 N   0  0  0  0  0  0  0  0  0  0  0  0
   10.2690   14.0860  -12.4871 C   0  0  0  0  0  0  0  0  0  0  0  0
   10.5427   13.7514  -13.7604 N   0  0  0  0  0  0  0  0  0  0  0  0
   11.6965   14.1885  -14.3335 C   0  0  0  0  0  0  0  0  0  0  0  0
   12.5301   15.0324  -13.5628 C   0  0  0  0  0  0  0  0  0  0  0  0
   12.9063   16.4840  -10.7311 H   0  0  0  0  0  0  0  0  0  0  0  0
   12.5627   13.0078  -21.4571 C   0  0  0  0  0  0  0  0  0  0  0  0
   12.7927   12.7233  -22.5596 N   0  0  0  0  0  0  0  0  0  0  0  0
   10.6164   11.6124  -20.2139 N   0  0  0  0  0  0  0  0  0  0  0  0
   11.1765   10.8976  -20.6678 H   0  0  0  0  0  0  0  0  0  0  0  0
    9.2396   11.3777  -20.3597 C   0  0  0  0  0  0  0  0  0  0  0  0
    8.3635   11.5080  -19.2844 C   0  0  0  0  0  0  0  0  0  0  0  0
    7.1766   10.7912  -19.2869 C   0  0  0  0  0  0  0  0  0  0  0  0
    6.8358   10.0141  -20.3958 C   0  0  0  0  0  0  0  0  0  0  0  0
    7.5630   10.0736  -21.5847 C   0  0  0  0  0  0  0  0  0  0  0  0
    8.7831   10.7744  -21.5445 C   0  0  0  0  0  0  0  0  0  0  0  0
    7.2097    9.4201  -22.8870 C   0  0  0  0  0  0  0  0  0  0  0  0
    7.4491    8.2154  -23.0187 O   0  0  0  0  0  0  0  0  0  0  0  0
    6.6752   10.0405  -23.9865 N   0  0  0  0  0  0  0  0  0  0  0  0
    6.6049    9.3728  -24.7480 H   0  0  0  0  0  0  0  0  0  0  0  0
    6.1399   11.3629  -24.2781 C   0  0  0  0  0  0  0  0  0  0  0  0
    7.2532   12.3604  -24.5633 C   0  0  0  0  0  0  0  0  0  0  0  0
    5.1248   11.2711  -25.4104 C   0  0  0  0  0  0  0  0  0  0  0  0
 10 11  1  0  0  0
 11 12  2  0  0  0
 12 13  1  0  0  0
 13 14  1  0  0  0
 14 15  2  0  0  0
 15 16  1  0  0  0
 16 17  2  0  0  0
 17 18  1  0  0  0
 18  3  1  0  0  0
  3  4  1  0  0  0
  4  5  1  0  0  0
  5  6  1  0  0  0
  6  1  1  0  0  0
  1  2  2  0  0  0
  2 21  1  0  0  0
 21 22  3  0  0  0
  1 23  1  0  0  0
 23 25  1  0  0  0
 25 26  2  0  0  0
 26 27  1  0  0  0
 27 28  2  0  0  0
 28 29  1  0  0  0
 29 31  1  0  0  0
 31 32  2  0  0  0
 31 33  1  0  0  0
 33 35  1  0  0  0
 35 36  1  0  0  0
 35 37  1  0  0  0
 29 30  2  0  0  0
 25 30  1  0  0  0
  6  7  1  0  0  0
  7  8  1  0  0  0
  7  9  1  0  0  0
  3  9  1  0  0  0
 18 19  2  0  0  0
 11 19  1  0  0  0
 14 19  1  0  0  0
 13 20  1  0  0  0
 23 24  1  0  0  0
 33 34  1  0  0  0
M  END
> <minimizedAffinity>
-9.45590

$$$$
mol_CHEMBL3715588_7


 37 40  0  0  0  0  0  0  0  0999 V2000
   11.2322   12.6460  -19.5638 C   0  0  0  0  0  0  0  0  0  0  0  0
   12.1680   13.3156  -20.1983 N   0  0  0  0  0  0  0  0  0  0  0  0
   11.9339   13.9523  -15.6723 N   0  0  0  0  0  0  0  0  0  0  0  0
   12.3096   12.6053  -16.1032 C   0  0  0  0  0  0  0  0  0  0  0  0
   11.3181   12.0154  -17.1356 C   0  0  0  0  0  0  0  0  0  0  0  0
   11.0034   12.9878  -18.2233 N   0  0  0  0  0  0  0  0  0  0  0  0
   10.4451   14.2435  -17.6586 C   0  0  0  0  0  0  0  0  0  0  0  0
    9.0744   14.0538  -17.0110 C   0  0  0  0  0  0  0  0  0  0  0  0
   11.4761   14.8847  -16.6965 C   0  0  0  0  0  0  0  0  0  0  0  0
   14.4968   16.0323  -14.9837 C   0  0  0  0  0  0  0  0  0  0  0  0
   13.7207   15.8412  -13.7317 C   0  0  0  0  0  0  0  0  0  0  0  0
   14.0004   16.4370  -12.5131 C   0  0  0  0  0  0  0  0  0  0  0  0
   13.0178   16.0843  -11.6286 N   0  0  0  0  0  0  0  0  0  0  0  0
   12.1021   15.2845  -12.2502 C   0  0  0  0  0  0  0  0  0  0  0  0
   10.9869   14.8287  -11.6637 N   0  0  0  0  0  0  0  0  0  0  0  0
   10.2484   14.1115  -12.5212 C   0  0  0  0  0  0  0  0  0  0  0  0
   10.5211   13.8155  -13.8054 N   0  0  0  0  0  0  0  0  0  0  0  0
   11.6848   14.2528  -14.3548 C   0  0  0  0  0  0  0  0  0  0  0  0
   12.5217   15.0644  -13.5556 C   0  0  0  0  0  0  0  0  0  0  0  0
   12.9351   16.3901  -10.6701 H   0  0  0  0  0  0  0  0  0  0  0  0
   12.4446   13.0200  -21.4681 C   0  0  0  0  0  0  0  0  0  0  0  0
   12.7310   12.7625  -22.5643 N   0  0  0  0  0  0  0  0  0  0  0  0
   10.5567   11.5988  -20.1689 N   0  0  0  0  0  0  0  0  0  0  0  0
   11.1228   10.8555  -20.5657 H   0  0  0  0  0  0  0  0  0  0  0  0
    9.1832   11.3589  -20.3256 C   0  0  0  0  0  0  0  0  0  0  0  0
    8.3002   11.4695  -19.2537 C   0  0  0  0  0  0  0  0  0  0  0  0
    7.1064   10.7644  -19.2839 C   0  0  0  0  0  0  0  0  0  0  0  0
    6.7662   10.0153  -20.4135 C   0  0  0  0  0  0  0  0  0  0  0  0
    7.5193   10.0727  -21.5873 C   0  0  0  0  0  0  0  0  0  0  0  0
    8.7391   10.7723  -21.5229 C   0  0  0  0  0  0  0  0  0  0  0  0
    7.1976    9.4241  -22.9004 C   0  0  0  0  0  0  0  0  0  0  0  0
    7.4532    8.2229  -23.0350 O   0  0  0  0  0  0  0  0  0  0  0  0
    6.6665   10.0387  -24.0036 N   0  0  0  0  0  0  0  0  0  0  0  0
    6.6179    9.3718  -24.7674 H   0  0  0  0  0  0  0  0  0  0  0  0
    6.1199   11.3544  -24.3019 C   0  0  0  0  0  0  0  0  0  0  0  0
    7.2317   12.3681  -24.5328 C   0  0  0  0  0  0  0  0  0  0  0  0
    5.1523   11.2623  -25.4747 C   0  0  0  0  0  0  0  0  0  0  0  0
 10 11  1  0  0  0
 11 12  2  0  0  0
 12 13  1  0  0  0
 13 14  1  0  0  0
 14 15  2  0  0  0
 15 16  1  0  0  0
 16 17  2  0  0  0
 17 18  1  0  0  0
 18  3  1  0  0  0
  3  4  1  0  0  0
  4  5  1  0  0  0
  5  6  1  0  0  0
  6  1  1  0  0  0
  1  2  2  0  0  0
  2 21  1  0  0  0
 21 22  3  0  0  0
  1 23  1  0  0  0
 23 25  1  0  0  0
 25 26  2  0  0  0
 26 27  1  0  0  0
 27 28  2  0  0  0
 28 29  1  0  0  0
 29 31  1  0  0  0
 31 32  2  0  0  0
 31 33  1  0  0  0
 33 35  1  0  0  0
 35 36  1  0  0  0
 35 37  1  0  0  0
 29 30  2  0  0  0
 25 30  1  0  0  0
  6  7  1  0  0  0
  7  8  1  0  0  0
  7  9  1  0  0  0
  3  9  1  0  0  0
 18 19  2  0  0  0
 11 19  1  0  0  0
 14 19  1  0  0  0
 13 20  1  0  0  0
 23 24  1  0  0  0
 33 34  1  0  0  0
M  END
> <minimizedAffinity>
-9.49955

$$$$
mol_CHEMBL3719354_8


 37 40  0  0  0  0  0  0  0  0999 V2000
   10.6727   14.0507  -14.1769 C   0  0  0  0  0  0  0  0  0  0  0  0
   10.1233   13.4253  -13.1595 N   0  0  0  0  0  0  0  0  0  0  0  0
   11.0007   13.4006  -18.2751 N   0  0  0  0  0  0  0  0  0  0  0  0
    9.9622   14.2710  -17.7268 C   0  0  0  0  0  0  0  0  0  0  0  0
    9.4503   13.7794  -16.3508 C   0  0  0  0  0  0  0  0  0  0  0  0
   10.5729   13.4309  -15.4304 N   0  0  0  0  0  0  0  0  0  0  0  0
   11.4492   12.3972  -16.0401 C   0  0  0  0  0  0  0  0  0  0  0  0
   10.7567   11.0468  -16.2156 C   0  0  0  0  0  0  0  0  0  0  0  0
   12.0410   12.9334  -17.3662 C   0  0  0  0  0  0  0  0  0  0  0  0
   13.4204   15.0943  -19.9339 C   0  0  0  0  0  0  0  0  0  0  0  0
   12.7503   14.1895  -20.9023 C   0  0  0  0  0  0  0  0  0  0  0  0
   13.0797   14.0632  -22.2415 C   0  0  0  0  0  0  0  0  0  0  0  0
   12.2983   13.0796  -22.7835 N   0  0  0  0  0  0  0  0  0  0  0  0
   11.4783   12.5596  -21.8236 C   0  0  0  0  0  0  0  0  0  0  0  0
   10.6387   11.5367  -22.0331 N   0  0  0  0  0  0  0  0  0  0  0  0
    9.9942   11.2022  -20.9071 C   0  0  0  0  0  0  0  0  0  0  0  0
   10.0943   11.7738  -19.6931 N   0  0  0  0  0  0  0  0  0  0  0  0
   10.9194   12.8418  -19.5264 C   0  0  0  0  0  0  0  0  0  0  0  0
   11.6896   13.2525  -20.6384 C   0  0  0  0  0  0  0  0  0  0  0  0
   12.3320   12.7418  -23.7342 H   0  0  0  0  0  0  0  0  0  0  0  0
   10.2053   13.9515  -11.9379 C   0  0  0  0  0  0  0  0  0  0  0  0
   10.3237   14.3983  -10.8719 N   0  0  0  0  0  0  0  0  0  0  0  0
   11.3782   15.2296  -14.0013 N   0  0  0  0  0  0  0  0  0  0  0  0
   10.8312   16.0765  -13.8809 H   0  0  0  0  0  0  0  0  0  0  0  0
   12.7548   15.4741  -13.8978 C   0  0  0  0  0  0  0  0  0  0  0  0
   13.3322   15.8886  -12.6995 C   0  0  0  0  0  0  0  0  0  0  0  0
   14.5392   16.5721  -12.7297 C   0  0  0  0  0  0  0  0  0  0  0  0
   15.2009   16.7726  -13.9455 C   0  0  0  0  0  0  0  0  0  0  0  0
   14.7517   16.1879  -15.1312 C   0  0  0  0  0  0  0  0  0  0  0  0
   13.5148   15.5181  -15.0787 C   0  0  0  0  0  0  0  0  0  0  0  0
   15.4162   16.2333  -16.4748 C   0  0  0  0  0  0  0  0  0  0  0  0
   15.4003   15.2103  -17.1676 O   0  0  0  0  0  0  0  0  0  0  0  0
   16.0748   17.3011  -17.0237 N   0  0  0  0  0  0  0  0  0  0  0  0
   16.4758   17.0245  -17.9142 H   0  0  0  0  0  0  0  0  0  0  0  0
   16.2750   18.6976  -16.6669 C   0  0  0  0  0  0  0  0  0  0  0  0
   17.5375   18.8664  -15.8323 C   0  0  0  0  0  0  0  0  0  0  0  0
   16.2797   19.5613  -17.9215 C   0  0  0  0  0  0  0  0  0  0  0  0
 10 11  1  0  0  0
 11 12  2  0  0  0
 12 13  1  0  0  0
 13 14  1  0  0  0
 14 15  2  0  0  0
 15 16  1  0  0  0
 16 17  2  0  0  0
 17 18  1  0  0  0
 18  3  1  0  0  0
  3  4  1  0  0  0
  4  5  1  0  0  0
  5  6  1  0  0  0
  6  1  1  0  0  0
  1  2  2  0  0  0
  2 21  1  0  0  0
 21 22  3  0  0  0
  1 23  1  0  0  0
 23 25  1  0  0  0
 25 26  2  0  0  0
 26 27  1  0  0  0
 27 28  2  0  0  0
 28 29  1  0  0  0
 29 31  1  0  0  0
 31 32  2  0  0  0
 31 33  1  0  0  0
 33 35  1  0  0  0
 35 36  1  0  0  0
 35 37  1  0  0  0
 29 30  2  0  0  0
 25 30  1  0  0  0
  6  7  1  0  0  0
  7  8  1  0  0  0
  7  9  1  0  0  0
  3  9  1  0  0  0
 18 19  2  0  0  0
 11 19  1  0  0  0
 14 19  1  0  0  0
 13 20  1  0  0  0
 23 24  1  0  0  0
 33 34  1  0  0  0
M  END
> <minimizedAffinity>
-9.67417

$$$$
mol_CHEMBL3715974_9


 37 40  0  0  0  0  0  0  0  0999 V2000
   10.6664   14.0404  -14.1593 C   0  0  0  0  0  0  0  0  0  0  0  0
   10.1219   13.4394  -13.1253 N   0  0  0  0  0  0  0  0  0  0  0  0
   11.0068   13.4571  -18.2461 N   0  0  0  0  0  0  0  0  0  0  0  0
    9.9273   14.2560  -17.6626 C   0  0  0  0  0  0  0  0  0  0  0  0
    9.4293   13.6867  -16.3146 C   0  0  0  0  0  0  0  0  0  0  0  0
   10.5678   13.3886  -15.3973 N   0  0  0  0  0  0  0  0  0  0  0  0
   11.4905   12.4047  -16.0182 C   0  0  0  0  0  0  0  0  0  0  0  0
   10.8580   11.0250  -16.1989 C   0  0  0  0  0  0  0  0  0  0  0  0
   12.0551   12.9790  -17.3447 C   0  0  0  0  0  0  0  0  0  0  0  0
   13.5033   15.1111  -20.0531 C   0  0  0  0  0  0  0  0  0  0  0  0
   12.7724   14.1685  -20.9373 C   0  0  0  0  0  0  0  0  0  0  0  0
   13.0900   13.9791  -22.2735 C   0  0  0  0  0  0  0  0  0  0  0  0
   12.2901   12.9908  -22.7695 N   0  0  0  0  0  0  0  0  0  0  0  0
   11.4653   12.5289  -21.7858 C   0  0  0  0  0  0  0  0  0  0  0  0
   10.6079   11.5153  -21.9646 N   0  0  0  0  0  0  0  0  0  0  0  0
    9.9549   11.2282  -20.8338 C   0  0  0  0  0  0  0  0  0  0  0  0
   10.0663   11.8348  -19.6396 N   0  0  0  0  0  0  0  0  0  0  0  0
   10.9159   12.8897  -19.4961 C   0  0  0  0  0  0  0  0  0  0  0  0
   11.6948   13.2594  -20.6231 C   0  0  0  0  0  0  0  0  0  0  0  0
   12.3140   12.6110  -23.7046 H   0  0  0  0  0  0  0  0  0  0  0  0
   10.2085   13.9952  -11.9169 C   0  0  0  0  0  0  0  0  0  0  0  0
   10.3080   14.4433  -10.8499 N   0  0  0  0  0  0  0  0  0  0  0  0
   11.3795   15.2191  -14.0155 N   0  0  0  0  0  0  0  0  0  0  0  0
   10.8403   16.0781  -13.9700 H   0  0  0  0  0  0  0  0  0  0  0  0
   12.7591   15.4577  -13.9238 C   0  0  0  0  0  0  0  0  0  0  0  0
   13.3490   15.8603  -12.7280 C   0  0  0  0  0  0  0  0  0  0  0  0
   14.5387   16.5717  -12.7660 C   0  0  0  0  0  0  0  0  0  0  0  0
   15.1713   16.8044  -13.9891 C   0  0  0  0  0  0  0  0  0  0  0  0
   14.7398   16.1929  -15.1665 C   0  0  0  0  0  0  0  0  0  0  0  0
   13.5111   15.5095  -15.1096 C   0  0  0  0  0  0  0  0  0  0  0  0
   15.4178   16.2328  -16.5030 C   0  0  0  0  0  0  0  0  0  0  0  0
   15.4105   15.2076  -17.1919 O   0  0  0  0  0  0  0  0  0  0  0  0
   16.0946   17.2982  -17.0373 N   0  0  0  0  0  0  0  0  0  0  0  0
   16.5101   17.0228  -17.9216 H   0  0  0  0  0  0  0  0  0  0  0  0
   16.2856   18.6957  -16.6772 C   0  0  0  0  0  0  0  0  0  0  0  0
   17.5383   18.8822  -15.8336 C   0  0  0  0  0  0  0  0  0  0  0  0
   16.2846   19.5575  -17.9333 C   0  0  0  0  0  0  0  0  0  0  0  0
 10 11  1  0  0  0
 11 12  2  0  0  0
 12 13  1  0  0  0
 13 14  1  0  0  0
 14 15  2  0  0  0
 15 16  1  0  0  0
 16 17  2  0  0  0
 17 18  1  0  0  0
 18  3  1  0  0  0
  3  4  1  0  0  0
  4  5  1  0  0  0
  5  6  1  0  0  0
  6  1  1  0  0  0
  1  2  2  0  0  0
  2 21  1  0  0  0
 21 22  3  0  0  0
  1 23  1  0  0  0
 23 25  1  0  0  0
 25 26  2  0  0  0
 26 27  1  0  0  0
 27 28  2  0  0  0
 28 29  1  0  0  0
 29 31  1  0  0  0
 31 32  2  0  0  0
 31 33  1  0  0  0
 33 35  1  0  0  0
 35 36  1  0  0  0
 35 37  1  0  0  0
 29 30  2  0  0  0
 25 30  1  0  0  0
  6  7  1  0  0  0
  7  8  1  0  0  0
  7  9  1  0  0  0
  3  9  1  0  0  0
 18 19  2  0  0  0
 11 19  1  0  0  0
 14 19  1  0  0  0
 13 20  1  0  0  0
 23 24  1  0  0  0
 33 34  1  0  0  0
M  END
> <minimizedAffinity>
-9.68269

$$$$
mol_CHEMBL3716162_10


 37 40  0  0  0  0  0  0  0  0999 V2000
   10.6517   14.0363  -14.1890 C   0  0  0  0  0  0  0  0  0  0  0  0
   10.1025   13.4167  -13.1687 N   0  0  0  0  0  0  0  0  0  0  0  0
   11.0260   13.4694  -18.2825 N   0  0  0  0  0  0  0  0  0  0  0  0
    9.9503   14.2875  -17.7175 C   0  0  0  0  0  0  0  0  0  0  0  0
    9.4343   13.7400  -16.3656 C   0  0  0  0  0  0  0  0  0  0  0  0
   10.5575   13.4094  -15.4401 N   0  0  0  0  0  0  0  0  0  0  0  0
   11.4628   12.4061  -16.0561 C   0  0  0  0  0  0  0  0  0  0  0  0
   10.8006   11.0429  -16.2519 C   0  0  0  0  0  0  0  0  0  0  0  0
   12.0546   12.9755  -17.3709 C   0  0  0  0  0  0  0  0  0  0  0  0
   13.4891   15.1238  -20.0538 C   0  0  0  0  0  0  0  0  0  0  0  0
   12.7435   14.2201  -20.9669 C   0  0  0  0  0  0  0  0  0  0  0  0
   13.0243   14.0837  -22.3174 C   0  0  0  0  0  0  0  0  0  0  0  0
   12.2267   13.0968  -22.8241 N   0  0  0  0  0  0  0  0  0  0  0  0
   11.4410   12.5851  -21.8325 C   0  0  0  0  0  0  0  0  0  0  0  0
   10.6053   11.5530  -22.0094 N   0  0  0  0  0  0  0  0  0  0  0  0
    9.9921   11.2253  -20.8658 C   0  0  0  0  0  0  0  0  0  0  0  0
   10.1106   11.8177  -19.6643 N   0  0  0  0  0  0  0  0  0  0  0  0
   10.9302   12.8950  -19.5280 C   0  0  0  0  0  0  0  0  0  0  0  0
   11.6815   13.2938  -20.6603 C   0  0  0  0  0  0  0  0  0  0  0  0
   12.2320   12.7473  -23.7712 H   0  0  0  0  0  0  0  0  0  0  0  0
   10.1829   13.9524  -11.9509 C   0  0  0  0  0  0  0  0  0  0  0  0
   10.2969   14.4088  -10.8887 N   0  0  0  0  0  0  0  0  0  0  0  0
   11.3649   15.2123  -14.0223 N   0  0  0  0  0  0  0  0  0  0  0  0
   10.8267   16.0709  -13.9620 H   0  0  0  0  0  0  0  0  0  0  0  0
   12.7457   15.4459  -13.9287 C   0  0  0  0  0  0  0  0  0  0  0  0
   13.3328   15.8545  -12.7336 C   0  0  0  0  0  0  0  0  0  0  0  0
   14.5236   16.5640  -12.7719 C   0  0  0  0  0  0  0  0  0  0  0  0
   15.1596   16.7908  -13.9944 C   0  0  0  0  0  0  0  0  0  0  0  0
   14.7289   16.1771  -15.1709 C   0  0  0  0  0  0  0  0  0  0  0  0
   13.5000   15.4931  -15.1136 C   0  0  0  0  0  0  0  0  0  0  0  0
   15.4082   16.2154  -16.5070 C   0  0  0  0  0  0  0  0  0  0  0  0
   15.3974   15.1901  -17.1962 O   0  0  0  0  0  0  0  0  0  0  0  0
   16.0880   17.2786  -17.0418 N   0  0  0  0  0  0  0  0  0  0  0  0
   16.5031   17.0012  -17.9256 H   0  0  0  0  0  0  0  0  0  0  0  0
   16.2841   18.6759  -16.6829 C   0  0  0  0  0  0  0  0  0  0  0  0
   17.5413   18.8589  -15.8450 C   0  0  0  0  0  0  0  0  0  0  0  0
   16.2797   19.5384  -17.9385 C   0  0  0  0  0  0  0  0  0  0  0  0
 10 11  1  0  0  0
 11 12  2  0  0  0
 12 13  1  0  0  0
 13 14  1  0  0  0
 14 15  2  0  0  0
 15 16  1  0  0  0
 16 17  2  0  0  0
 17 18  1  0  0  0
 18  3  1  0  0  0
  3  4  1  0  0  0
  4  5  1  0  0  0
  5  6  1  0  0  0
  6  1  1  0  0  0
  1  2  2  0  0  0
  2 21  1  0  0  0
 21 22  3  0  0  0
  1 23  1  0  0  0
 23 25  1  0  0  0
 25 26  2  0  0  0
 26 27  1  0  0  0
 27 28  2  0  0  0
 28 29  1  0  0  0
 29 31  1  0  0  0
 31 32  2  0  0  0
 31 33  1  0  0  0
 33 35  1  0  0  0
 35 36  1  0  0  0
 35 37  1  0  0  0
 29 30  2  0  0  0
 25 30  1  0  0  0
  6  7  1  0  0  0
  7  8  1  0  0  0
  7  9  1  0  0  0
  3  9  1  0  0  0
 18 19  2  0  0  0
 11 19  1  0  0  0
 14 19  1  0  0  0
 13 20  1  0  0  0
 23 24  1  0  0  0
 33 34  1  0  0  0
M  END
> <minimizedAffinity>
-9.65988

$$$$
mol_CHEMBL3715037_11


 37 40  0  0  0  0  0  0  0  0999 V2000
   11.3001   12.6102  -19.5835 C   0  0  0  0  0  0  0  0  0  0  0  0
   12.2877   13.2407  -20.1784 N   0  0  0  0  0  0  0  0  0  0  0  0
   11.9611   13.9127  -15.6931 N   0  0  0  0  0  0  0  0  0  0  0  0
   12.2949   12.5534  -16.1209 C   0  0  0  0  0  0  0  0  0  0  0  0
   11.2892   11.9903  -17.1520 C   0  0  0  0  0  0  0  0  0  0  0  0
   11.0301   12.9624  -18.2531 N   0  0  0  0  0  0  0  0  0  0  0  0
   10.5010   14.2388  -17.7074 C   0  0  0  0  0  0  0  0  0  0  0  0
    9.1102   14.0949  -17.0910 C   0  0  0  0  0  0  0  0  0  0  0  0
   11.5302   14.8550  -16.7238 C   0  0  0  0  0  0  0  0  0  0  0  0
   14.5484   16.0209  -14.9234 C   0  0  0  0  0  0  0  0  0  0  0  0
   13.7171   15.8259  -13.7081 C   0  0  0  0  0  0  0  0  0  0  0  0
   13.9486   16.4412  -12.4884 C   0  0  0  0  0  0  0  0  0  0  0  0
   12.9438   16.0879  -11.6320 N   0  0  0  0  0  0  0  0  0  0  0  0
   12.0590   15.2689  -12.2717 C   0  0  0  0  0  0  0  0  0  0  0  0
   10.9369   14.8053  -11.7055 N   0  0  0  0  0  0  0  0  0  0  0  0
   10.2273   14.0693  -12.5694 C   0  0  0  0  0  0  0  0  0  0  0  0
   10.5303   13.7688  -13.8449 N   0  0  0  0  0  0  0  0  0  0  0  0
   11.6982   14.2185  -14.3784 C   0  0  0  0  0  0  0  0  0  0  0  0
   12.5146   15.0424  -13.5655 C   0  0  0  0  0  0  0  0  0  0  0  0
   12.8269   16.4043  -10.6805 H   0  0  0  0  0  0  0  0  0  0  0  0
   12.6060   12.9321  -21.4353 C   0  0  0  0  0  0  0  0  0  0  0  0
   12.8466   12.6850  -22.5446 N   0  0  0  0  0  0  0  0  0  0  0  0
   10.6116   11.5877  -20.2146 N   0  0  0  0  0  0  0  0  0  0  0  0
   11.1685   10.8648  -20.6595 H   0  0  0  0  0  0  0  0  0  0  0  0
    9.2348   11.3599  -20.3600 C   0  0  0  0  0  0  0  0  0  0  0  0
    8.3602   11.4922  -19.2840 C   0  0  0  0  0  0  0  0  0  0  0  0
    7.1635   10.7921  -19.2942 C   0  0  0  0  0  0  0  0  0  0  0  0
    6.8129   10.0282  -20.4099 C   0  0  0  0  0  0  0  0  0  0  0  0
    7.5504   10.0751  -21.5937 C   0  0  0  0  0  0  0  0  0  0  0  0
    8.7759   10.7656  -21.5478 C   0  0  0  0  0  0  0  0  0  0  0  0
    7.2056    9.4210  -22.8980 C   0  0  0  0  0  0  0  0  0  0  0  0
    7.4495    8.2171  -23.0290 O   0  0  0  0  0  0  0  0  0  0  0  0
    6.6688   10.0364  -23.9985 N   0  0  0  0  0  0  0  0  0  0  0  0
    6.6041    9.3669  -24.7587 H   0  0  0  0  0  0  0  0  0  0  0  0
    6.1300   11.3558  -24.2944 C   0  0  0  0  0  0  0  0  0  0  0  0
    7.2449   12.3611  -24.5452 C   0  0  0  0  0  0  0  0  0  0  0  0
    5.1435   11.2657  -25.4515 C   0  0  0  0  0  0  0  0  0  0  0  0
 10 11  1  0  0  0
 11 12  2  0  0  0
 12 13  1  0  0  0
 13 14  1  0  0  0
 14 15  2  0  0  0
 15 16  1  0  0  0
 16 17  2  0  0  0
 17 18  1  0  0  0
 18  3  1  0  0  0
  3  4  1  0  0  0
  4  5  1  0  0  0
  5  6  1  0  0  0
  6  1  1  0  0  0
  1  2  2  0  0  0
  2 21  1  0  0  0
 21 22  3  0  0  0
  1 23  1  0  0  0
 23 25  1  0  0  0
 25 26  2  0  0  0
 26 27  1  0  0  0
 27 28  2  0  0  0
 28 29  1  0  0  0
 29 31  1  0  0  0
 31 32  2  0  0  0
 31 33  1  0  0  0
 33 35  1  0  0  0
 35 36  1  0  0  0
 35 37  1  0  0  0
 29 30  2  0  0  0
 25 30  1  0  0  0
  6  7  1  0  0  0
  7  8  1  0  0  0
  7  9  1  0  0  0
  3  9  1  0  0  0
 18 19  2  0  0  0
 11 19  1  0  0  0
 14 19  1  0  0  0
 13 20  1  0  0  0
 23 24  1  0  0  0
 33 34  1  0  0  0
M  END
> <minimizedAffinity>
-9.52620

$$$$
mol_CHEMBL3718794_12


 37 40  0  0  0  0  0  0  0  0999 V2000
   10.6694   14.0762  -14.1705 C   0  0  0  0  0  0  0  0  0  0  0  0
   10.1185   13.4691  -13.1434 N   0  0  0  0  0  0  0  0  0  0  0  0
   11.0750   13.4932  -18.2539 N   0  0  0  0  0  0  0  0  0  0  0  0
    9.9914   14.3011  -17.6884 C   0  0  0  0  0  0  0  0  0  0  0  0
    9.4654   13.7415  -16.3473 C   0  0  0  0  0  0  0  0  0  0  0  0
   10.5847   13.4292  -15.4121 N   0  0  0  0  0  0  0  0  0  0  0  0
   11.5048   12.4334  -16.0182 C   0  0  0  0  0  0  0  0  0  0  0  0
   10.8588   11.0611  -16.2053 C   0  0  0  0  0  0  0  0  0  0  0  0
   12.0989   13.0000  -17.3348 C   0  0  0  0  0  0  0  0  0  0  0  0
   13.6243   15.0092  -20.0419 C   0  0  0  0  0  0  0  0  0  0  0  0
   12.8609   14.1016  -20.9357 C   0  0  0  0  0  0  0  0  0  0  0  0
   13.1683   13.9000  -22.2721 C   0  0  0  0  0  0  0  0  0  0  0  0
   12.3372   12.9337  -22.7631 N   0  0  0  0  0  0  0  0  0  0  0  0
   11.5054   12.4954  -21.7739 C   0  0  0  0  0  0  0  0  0  0  0  0
   10.6242   11.5001  -21.9388 N   0  0  0  0  0  0  0  0  0  0  0  0
    9.9711   11.2382  -20.8008 C   0  0  0  0  0  0  0  0  0  0  0  0
   10.0968   11.8576  -19.6138 N   0  0  0  0  0  0  0  0  0  0  0  0
   10.9674   12.8962  -19.4889 C   0  0  0  0  0  0  0  0  0  0  0  0
   11.7557   13.2291  -20.6188 C   0  0  0  0  0  0  0  0  0  0  0  0
   12.3477   12.5506  -23.6969 H   0  0  0  0  0  0  0  0  0  0  0  0
   10.1911   14.0223  -11.9329 C   0  0  0  0  0  0  0  0  0  0  0  0
   10.2976   14.4908  -10.8752 N   0  0  0  0  0  0  0  0  0  0  0  0
   11.3750   15.2580  -14.0171 N   0  0  0  0  0  0  0  0  0  0  0  0
   10.8322   16.1147  -13.9739 H   0  0  0  0  0  0  0  0  0  0  0  0
   12.7530   15.4991  -13.9087 C   0  0  0  0  0  0  0  0  0  0  0  0
   13.3234   15.9220  -12.7103 C   0  0  0  0  0  0  0  0  0  0  0  0
   14.5153   16.6296  -12.7405 C   0  0  0  0  0  0  0  0  0  0  0  0
   15.1691   16.8415  -13.9567 C   0  0  0  0  0  0  0  0  0  0  0  0
   14.7501   16.2201  -15.1338 C   0  0  0  0  0  0  0  0  0  0  0  0
   13.5216   15.5352  -15.0843 C   0  0  0  0  0  0  0  0  0  0  0  0
   15.4407   16.2489  -16.4643 C   0  0  0  0  0  0  0  0  0  0  0  0
   15.4639   15.2096  -17.1318 O   0  0  0  0  0  0  0  0  0  0  0  0
   16.0942   17.3188  -17.0176 N   0  0  0  0  0  0  0  0  0  0  0  0
   16.5240   17.0335  -17.8919 H   0  0  0  0  0  0  0  0  0  0  0  0
   16.2501   18.7279  -16.6877 C   0  0  0  0  0  0  0  0  0  0  0  0
   17.4867   18.9581  -15.8309 C   0  0  0  0  0  0  0  0  0  0  0  0
   16.2501   19.5621  -17.9621 C   0  0  0  0  0  0  0  0  0  0  0  0
 10 11  1  0  0  0
 11 12  2  0  0  0
 12 13  1  0  0  0
 13 14  1  0  0  0
 14 15  2  0  0  0
 15 16  1  0  0  0
 16 17  2  0  0  0
 17 18  1  0  0  0
 18  3  1  0  0  0
  3  4  1  0  0  0
  4  5  1  0  0  0
  5  6  1  0  0  0
  6  1  1  0  0  0
  1  2  2  0  0  0
  2 21  1  0  0  0
 21 22  3  0  0  0
  1 23  1  0  0  0
 23 25  1  0  0  0
 25 26  2  0  0  0
 26 27  1  0  0  0
 27 28  2  0  0  0
 28 29  1  0  0  0
 29 31  1  0  0  0
 31 32  2  0  0  0
 31 33  1  0  0  0
 33 35  1  0  0  0
 35 36  1  0  0  0
 35 37  1  0  0  0
 29 30  2  0  0  0
 25 30  1  0  0  0
  6  7  1  0  0  0
  7  8  1  0  0  0
  7  9  1  0  0  0
  3  9  1  0  0  0
 18 19  2  0  0  0
 11 19  1  0  0  0
 14 19  1  0  0  0
 13 20  1  0  0  0
 23 24  1  0  0  0
 33 34  1  0  0  0
M  END
> <minimizedAffinity>
-9.64792

$$$$
mol_CHEMBL3356066_13


 37 40  0  0  0  0  0  0  0  0999 V2000
   12.1178   13.3989  -19.2061 C   0  0  0  0  0  0  0  0  0  0  0  0
   12.6895   14.1296  -20.1378 N   0  0  0  0  0  0  0  0  0  0  0  0
   11.4067   13.9561  -15.1690 N   0  0  0  0  0  0  0  0  0  0  0  0
   10.8053   14.7850  -16.2089 C   0  0  0  0  0  0  0  0  0  0  0  0
   11.7919   15.0508  -17.3608 C   0  0  0  0  0  0  0  0  0  0  0  0
   12.3554   13.7716  -17.8755 N   0  0  0  0  0  0  0  0  0  0  0  0
   13.0835   13.0543  -16.7938 C   0  0  0  0  0  0  0  0  0  0  0  0
   14.3498   13.7841  -16.3446 C   0  0  0  0  0  0  0  0  0  0  0  0
   12.1351   12.7609  -15.5961 C   0  0  0  0  0  0  0  0  0  0  0  0
   13.9082   16.2415  -14.3147 C   0  0  0  0  0  0  0  0  0  0  0  0
   13.2440   15.7473  -13.0817 C   0  0  0  0  0  0  0  0  0  0  0  0
   13.6280   16.0911  -11.7963 C   0  0  0  0  0  0  0  0  0  0  0  0
   12.7275   15.5510  -10.9226 N   0  0  0  0  0  0  0  0  0  0  0  0
   11.7648   14.8724  -11.6127 C   0  0  0  0  0  0  0  0  0  0  0  0
   10.7072   14.2930  -11.0299 N   0  0  0  0  0  0  0  0  0  0  0  0
    9.9092   13.7194  -11.9387 C   0  0  0  0  0  0  0  0  0  0  0  0
   10.0901   13.6437  -13.2697 N   0  0  0  0  0  0  0  0  0  0  0  0
   11.2093   14.1842  -13.8274 C   0  0  0  0  0  0  0  0  0  0  0  0
   12.0819   14.8985  -12.9665 C   0  0  0  0  0  0  0  0  0  0  0  0
   12.7289   15.6550   -9.9185 H   0  0  0  0  0  0  0  0  0  0  0  0
   12.5310   13.8138  -21.4225 C   0  0  0  0  0  0  0  0  0  0  0  0
   12.4258   13.5113  -22.5393 N   0  0  0  0  0  0  0  0  0  0  0  0
   11.3857   12.2720  -19.5291 N   0  0  0  0  0  0  0  0  0  0  0  0
   11.9071   11.4150  -19.6855 H   0  0  0  0  0  0  0  0  0  0  0  0
   10.0037   12.0766  -19.6338 C   0  0  0  0  0  0  0  0  0  0  0  0
    9.1307   12.5135  -18.6392 C   0  0  0  0  0  0  0  0  0  0  0  0
    7.8786   11.9267  -18.5334 C   0  0  0  0  0  0  0  0  0  0  0  0
    7.4770   10.9598  -19.4619 C   0  0  0  0  0  0  0  0  0  0  0  0
    8.2542   10.6448  -20.5794 C   0  0  0  0  0  0  0  0  0  0  0  0
    9.5252   11.2416  -20.6558 C   0  0  0  0  0  0  0  0  0  0  0  0
    7.9095    9.7023  -21.6937 C   0  0  0  0  0  0  0  0  0  0  0  0
    7.9491    8.4887  -21.4650 O   0  0  0  0  0  0  0  0  0  0  0  0
    7.5645   10.0448  -22.9733 N   0  0  0  0  0  0  0  0  0  0  0  0
    7.4418    9.2011  -23.5244 H   0  0  0  0  0  0  0  0  0  0  0  0
    7.2926   11.2870  -23.6791 C   0  0  0  0  0  0  0  0  0  0  0  0
    8.4860   11.6911  -24.5343 C   0  0  0  0  0  0  0  0  0  0  0  0
    6.0057   11.1613  -24.4837 C   0  0  0  0  0  0  0  0  0  0  0  0
 10 11  1  0  0  0
 11 12  2  0  0  0
 12 13  1  0  0  0
 13 14  1  0  0  0
 14 15  2  0  0  0
 15 16  1  0  0  0
 16 17  2  0  0  0
 17 18  1  0  0  0
 18  3  1  0  0  0
  3  4  1  0  0  0
  4  5  1  0  0  0
  5  6  1  0  0  0
  6  1  1  0  0  0
  1  2  2  0  0  0
  2 21  1  0  0  0
 21 22  3  0  0  0
  1 23  1  0  0  0
 23 25  1  0  0  0
 25 26  2  0  0  0
 26 27  1  0  0  0
 27 28  2  0  0  0
 28 29  1  0  0  0
 29 31  1  0  0  0
 31 32  2  0  0  0
 31 33  1  0  0  0
 33 35  1  0  0  0
 35 36  1  0  0  0
 35 37  1  0  0  0
 29 30  2  0  0  0
 25 30  1  0  0  0
  6  7  1  0  0  0
  7  8  1  0  0  0
  7  9  1  0  0  0
  3  9  1  0  0  0
 18 19  2  0  0  0
 11 19  1  0  0  0
 14 19  1  0  0  0
 13 20  1  0  0  0
 23 24  1  0  0  0
 33 34  1  0  0  0
M  END
> <minimizedAffinity>
-9.61593

$$$$
mol_CHEMBL3716812_14


 37 40  0  0  0  0  0  0  0  0999 V2000
   11.2646   12.6713  -19.5842 C   0  0  0  0  0  0  0  0  0  0  0  0
   12.1879   13.3672  -20.2076 N   0  0  0  0  0  0  0  0  0  0  0  0
   11.8950   13.8703  -15.6427 N   0  0  0  0  0  0  0  0  0  0  0  0
   12.2007   12.5033  -16.0675 C   0  0  0  0  0  0  0  0  0  0  0  0
   11.2320   11.9894  -17.1644 C   0  0  0  0  0  0  0  0  0  0  0  0
   11.0138   12.9983  -18.2435 N   0  0  0  0  0  0  0  0  0  0  0  0
   10.5077   14.2738  -17.6759 C   0  0  0  0  0  0  0  0  0  0  0  0
    9.1081   14.1514  -17.0765 C   0  0  0  0  0  0  0  0  0  0  0  0
   11.5440   14.8380  -16.6754 C   0  0  0  0  0  0  0  0  0  0  0  0
   14.4703   16.0015  -14.9296 C   0  0  0  0  0  0  0  0  0  0  0  0
   13.6601   15.8048  -13.7001 C   0  0  0  0  0  0  0  0  0  0  0  0
   13.9210   16.4086  -12.4806 C   0  0  0  0  0  0  0  0  0  0  0  0
   12.9189   16.0731  -11.6129 N   0  0  0  0  0  0  0  0  0  0  0  0
   12.0124   15.2710  -12.2436 C   0  0  0  0  0  0  0  0  0  0  0  0
   10.8814   14.8354  -11.6722 N   0  0  0  0  0  0  0  0  0  0  0  0
   10.1552   14.1082  -12.5301 C   0  0  0  0  0  0  0  0  0  0  0  0
   10.4557   13.7826  -13.7997 N   0  0  0  0  0  0  0  0  0  0  0  0
   11.6340   14.2007  -14.3351 C   0  0  0  0  0  0  0  0  0  0  0  0
   12.4589   15.0266  -13.5369 C   0  0  0  0  0  0  0  0  0  0  0  0
   12.8165   16.3924  -10.6608 H   0  0  0  0  0  0  0  0  0  0  0  0
   12.4776   13.0859  -21.4776 C   0  0  0  0  0  0  0  0  0  0  0  0
   12.7017   12.8064  -22.5832 N   0  0  0  0  0  0  0  0  0  0  0  0
   10.6194   11.6082  -20.1963 N   0  0  0  0  0  0  0  0  0  0  0  0
   11.2038   10.8699  -20.5757 H   0  0  0  0  0  0  0  0  0  0  0  0
    9.2514   11.3609  -20.3929 C   0  0  0  0  0  0  0  0  0  0  0  0
    8.3478   11.4171  -19.3338 C   0  0  0  0  0  0  0  0  0  0  0  0
    7.1602   10.7053  -19.4158 C   0  0  0  0  0  0  0  0  0  0  0  0
    6.8447   10.0014  -20.5815 C   0  0  0  0  0  0  0  0  0  0  0  0
    7.6291   10.0978  -21.7325 C   0  0  0  0  0  0  0  0  0  0  0  0
    8.8384   10.8116  -21.6194 C   0  0  0  0  0  0  0  0  0  0  0  0
    7.3489    9.4798  -23.0700 C   0  0  0  0  0  0  0  0  0  0  0  0
    7.4137    8.2498  -23.1676 O   0  0  0  0  0  0  0  0  0  0  0  0
    7.0426   10.1446  -24.2285 N   0  0  0  0  0  0  0  0  0  0  0  0
    6.9671    9.4751  -24.9878 H   0  0  0  0  0  0  0  0  0  0  0  0
    6.7566   11.5240  -24.5960 C   0  0  0  0  0  0  0  0  0  0  0  0
    7.7183   12.0075  -25.6737 C   0  0  0  0  0  0  0  0  0  0  0  0
    5.2964   11.6661  -25.0060 C   0  0  0  0  0  0  0  0  0  0  0  0
 10 11  1  0  0  0
 11 12  2  0  0  0
 12 13  1  0  0  0
 13 14  1  0  0  0
 14 15  2  0  0  0
 15 16  1  0  0  0
 16 17  2  0  0  0
 17 18  1  0  0  0
 18  3  1  0  0  0
  3  4  1  0  0  0
  4  5  1  0  0  0
  5  6  1  0  0  0
  6  1  1  0  0  0
  1  2  2  0  0  0
  2 21  1  0  0  0
 21 22  3  0  0  0
  1 23  1  0  0  0
 23 25  1  0  0  0
 25 26  2  0  0  0
 26 27  1  0  0  0
 27 28  2  0  0  0
 28 29  1  0  0  0
 29 31  1  0  0  0
 31 32  2  0  0  0
 31 33  1  0  0  0
 33 35  1  0  0  0
 35 36  1  0  0  0
 35 37  1  0  0  0
 29 30  2  0  0  0
 25 30  1  0  0  0
  6  7  1  0  0  0
  7  8  1  0  0  0
  7  9  1  0  0  0
  3  9  1  0  0  0
 18 19  2  0  0  0
 11 19  1  0  0  0
 14 19  1  0  0  0
 13 20  1  0  0  0
 23 24  1  0  0  0
 33 34  1  0  0  0
M  END
> <minimizedAffinity>
-9.34372

$$$$
mol_CHEMBL3715062_15


 37 40  0  0  0  0  0  0  0  0999 V2000
   10.6687   14.0248  -14.1106 C   0  0  0  0  0  0  0  0  0  0  0  0
   10.1228   13.3912  -13.0971 N   0  0  0  0  0  0  0  0  0  0  0  0
   11.0300   13.4712  -18.2162 N   0  0  0  0  0  0  0  0  0  0  0  0
    9.9736   14.3045  -17.6413 C   0  0  0  0  0  0  0  0  0  0  0  0
    9.4549   13.7572  -16.2906 C   0  0  0  0  0  0  0  0  0  0  0  0
   10.5758   13.4122  -15.3687 N   0  0  0  0  0  0  0  0  0  0  0  0
   11.4723   12.4043  -15.9912 C   0  0  0  0  0  0  0  0  0  0  0  0
   10.8027   11.0442  -16.1830 C   0  0  0  0  0  0  0  0  0  0  0  0
   12.0607   12.9710  -17.3095 C   0  0  0  0  0  0  0  0  0  0  0  0
   13.4601   15.0672  -20.0102 C   0  0  0  0  0  0  0  0  0  0  0  0
   12.7527   14.1233  -20.9128 C   0  0  0  0  0  0  0  0  0  0  0  0
   13.0715   13.9130  -22.2446 C   0  0  0  0  0  0  0  0  0  0  0  0
   12.2587   12.9266  -22.7294 N   0  0  0  0  0  0  0  0  0  0  0  0
   11.4295   12.4836  -21.7397 C   0  0  0  0  0  0  0  0  0  0  0  0
   10.5571   11.4792  -21.8976 N   0  0  0  0  0  0  0  0  0  0  0  0
    9.9100   11.2165  -20.7556 C   0  0  0  0  0  0  0  0  0  0  0  0
   10.0408   11.8352  -19.5685 N   0  0  0  0  0  0  0  0  0  0  0  0
   10.9037   12.8802  -19.4511 C   0  0  0  0  0  0  0  0  0  0  0  0
   11.6728   13.2246  -20.5890 C   0  0  0  0  0  0  0  0  0  0  0  0
   12.2766   12.5374  -23.6608 H   0  0  0  0  0  0  0  0  0  0  0  0
   10.1990   13.9140  -11.8736 C   0  0  0  0  0  0  0  0  0  0  0  0
   10.3098   14.3626  -10.8077 N   0  0  0  0  0  0  0  0  0  0  0  0
   11.3736   15.2034  -13.9310 N   0  0  0  0  0  0  0  0  0  0  0  0
   10.8291   16.0558  -13.8439 H   0  0  0  0  0  0  0  0  0  0  0  0
   12.7532   15.4453  -13.8467 C   0  0  0  0  0  0  0  0  0  0  0  0
   13.3437   15.8697  -12.6586 C   0  0  0  0  0  0  0  0  0  0  0  0
   14.5328   16.5808  -12.7099 C   0  0  0  0  0  0  0  0  0  0  0  0
   15.1636   16.7956  -13.9376 C   0  0  0  0  0  0  0  0  0  0  0  0
   14.7254   16.1739  -15.1074 C   0  0  0  0  0  0  0  0  0  0  0  0
   13.5002   15.4848  -15.0362 C   0  0  0  0  0  0  0  0  0  0  0  0
   15.3916   16.2067  -16.4503 C   0  0  0  0  0  0  0  0  0  0  0  0
   15.3715   15.1795  -17.1364 O   0  0  0  0  0  0  0  0  0  0  0  0
   16.0662   17.2668  -16.9968 N   0  0  0  0  0  0  0  0  0  0  0  0
   16.4713   16.9851  -17.8840 H   0  0  0  0  0  0  0  0  0  0  0  0
   16.2698   18.6646  -16.6450 C   0  0  0  0  0  0  0  0  0  0  0  0
   17.5264   18.8425  -15.8049 C   0  0  0  0  0  0  0  0  0  0  0  0
   16.2742   19.5212  -17.9045 C   0  0  0  0  0  0  0  0  0  0  0  0
 10 11  1  0  0  0
 11 12  2  0  0  0
 12 13  1  0  0  0
 13 14  1  0  0  0
 14 15  2  0  0  0
 15 16  1  0  0  0
 16 17  2  0  0  0
 17 18  1  0  0  0
 18  3  1  0  0  0
  3  4  1  0  0  0
  4  5  1  0  0  0
  5  6  1  0  0  0
  6  1  1  0  0  0
  1  2  2  0  0  0
  2 21  1  0  0  0
 21 22  3  0  0  0
  1 23  1  0  0  0
 23 25  1  0  0  0
 25 26  2  0  0  0
 26 27  1  0  0  0
 27 28  2  0  0  0
 28 29  1  0  0  0
 29 31  1  0  0  0
 31 32  2  0  0  0
 31 33  1  0  0  0
 33 35  1  0  0  0
 35 36  1  0  0  0
 35 37  1  0  0  0
 29 30  2  0  0  0
 25 30  1  0  0  0
  6  7  1  0  0  0
  7  8  1  0  0  0
  7  9  1  0  0  0
  3  9  1  0  0  0
 18 19  2  0  0  0
 11 19  1  0  0  0
 14 19  1  0  0  0
 13 20  1  0  0  0
 23 24  1  0  0  0
 33 34  1  0  0  0
M  END
> <minimizedAffinity>
-9.69233

$$$$
mol_CHEMBL4545883_16


 37 40  0  0  0  0  0  0  0  0999 V2000
   10.6608   14.0379  -14.1898 C   0  0  0  0  0  0  0  0  0  0  0  0
   10.1155   13.4169  -13.1683 N   0  0  0  0  0  0  0  0  0  0  0  0
   11.0217   13.4586  -18.2851 N   0  0  0  0  0  0  0  0  0  0  0  0
    9.9516   14.2852  -17.7222 C   0  0  0  0  0  0  0  0  0  0  0  0
    9.4379   13.7483  -16.3646 C   0  0  0  0  0  0  0  0  0  0  0  0
   10.5617   13.4128  -15.4414 N   0  0  0  0  0  0  0  0  0  0  0  0
   11.4594   12.4026  -16.0569 C   0  0  0  0  0  0  0  0  0  0  0  0
   10.7889   11.0429  -16.2489 C   0  0  0  0  0  0  0  0  0  0  0  0
   12.0510   12.9657  -17.3743 C   0  0  0  0  0  0  0  0  0  0  0  0
   13.4956   15.0951  -20.0507 C   0  0  0  0  0  0  0  0  0  0  0  0
   12.7474   14.1961  -20.9664 C   0  0  0  0  0  0  0  0  0  0  0  0
   13.0286   14.0584  -22.3166 C   0  0  0  0  0  0  0  0  0  0  0  0
   12.2262   13.0755  -22.8240 N   0  0  0  0  0  0  0  0  0  0  0  0
   11.4368   12.5681  -21.8330 C   0  0  0  0  0  0  0  0  0  0  0  0
   10.5960   11.5402  -22.0100 N   0  0  0  0  0  0  0  0  0  0  0  0
    9.9801   11.2165  -20.8666 C   0  0  0  0  0  0  0  0  0  0  0  0
   10.1000   11.8096  -19.6655 N   0  0  0  0  0  0  0  0  0  0  0  0
   10.9247   12.8829  -19.5297 C   0  0  0  0  0  0  0  0  0  0  0  0
   11.6796   13.2763  -20.6612 C   0  0  0  0  0  0  0  0  0  0  0  0
   12.2305   12.7259  -23.7710 H   0  0  0  0  0  0  0  0  0  0  0  0
   10.2001   13.9514  -11.9502 C   0  0  0  0  0  0  0  0  0  0  0  0
   10.2832   14.3763  -10.8722 N   0  0  0  0  0  0  0  0  0  0  0  0
   11.3745   15.2138  -14.0245 N   0  0  0  0  0  0  0  0  0  0  0  0
   10.8368   16.0729  -13.9671 H   0  0  0  0  0  0  0  0  0  0  0  0
   12.7556   15.4469  -13.9317 C   0  0  0  0  0  0  0  0  0  0  0  0
   13.3436   15.8559  -12.7370 C   0  0  0  0  0  0  0  0  0  0  0  0
   14.5331   16.5672  -12.7763 C   0  0  0  0  0  0  0  0  0  0  0  0
   15.1675   16.7951  -13.9992 C   0  0  0  0  0  0  0  0  0  0  0  0
   14.7381   16.1785  -15.1748 C   0  0  0  0  0  0  0  0  0  0  0  0
   13.5097   15.4938  -15.1168 C   0  0  0  0  0  0  0  0  0  0  0  0
   15.4188   16.2154  -16.5101 C   0  0  0  0  0  0  0  0  0  0  0  0
   15.4122   15.1883  -17.1965 O   0  0  0  0  0  0  0  0  0  0  0  0
   16.0967   17.2794  -17.0461 N   0  0  0  0  0  0  0  0  0  0  0  0
   16.5141   17.0013  -17.9285 H   0  0  0  0  0  0  0  0  0  0  0  0
   16.2875   18.6783  -16.6903 C   0  0  0  0  0  0  0  0  0  0  0  0
   17.5380   18.8672  -15.8439 C   0  0  0  0  0  0  0  0  0  0  0  0
   16.2904   19.5365  -17.9489 C   0  0  0  0  0  0  0  0  0  0  0  0
 10 11  1  0  0  0
 11 12  2  0  0  0
 12 13  1  0  0  0
 13 14  1  0  0  0
 14 15  2  0  0  0
 15 16  1  0  0  0
 16 17  2  0  0  0
 17 18  1  0  0  0
 18  3  1  0  0  0
  3  4  1  0  0  0
  4  5  1  0  0  0
  5  6  1  0  0  0
  6  1  1  0  0  0
  1  2  2  0  0  0
  2 21  1  0  0  0
 21 22  3  0  0  0
  1 23  1  0  0  0
 23 25  1  0  0  0
 25 26  2  0  0  0
 26 27  1  0  0  0
 27 28  2  0  0  0
 28 29  1  0  0  0
 29 31  1  0  0  0
 31 32  2  0  0  0
 31 33  1  0  0  0
 33 35  1  0  0  0
 35 36  1  0  0  0
 35 37  1  0  0  0
 29 30  2  0  0  0
 25 30  1  0  0  0
  6  7  1  0  0  0
  7  8  1  0  0  0
  7  9  1  0  0  0
  3  9  1  0  0  0
 18 19  2  0  0  0
 11 19  1  0  0  0
 14 19  1  0  0  0
 13 20  1  0  0  0
 23 24  1  0  0  0
 33 34  1  0  0  0
M  END
> <minimizedAffinity>
-9.66892

$$$$
mol_CHEMBL4448573_17


 37 40  0  0  0  0  0  0  0  0999 V2000
   10.6785   14.0929  -14.1581 C   0  0  0  0  0  0  0  0  0  0  0  0
   10.1366   13.4608  -13.1420 N   0  0  0  0  0  0  0  0  0  0  0  0
   10.9833   13.4630  -18.2663 N   0  0  0  0  0  0  0  0  0  0  0  0
    9.9643   14.3551  -17.7155 C   0  0  0  0  0  0  0  0  0  0  0  0
    9.4458   13.8742  -16.3365 C   0  0  0  0  0  0  0  0  0  0  0  0
   10.5603   13.4906  -15.4189 N   0  0  0  0  0  0  0  0  0  0  0  0
   11.4098   12.4377  -16.0326 C   0  0  0  0  0  0  0  0  0  0  0  0
   10.6817   11.1069  -16.2148 C   0  0  0  0  0  0  0  0  0  0  0  0
   12.0118   12.9686  -17.3568 C   0  0  0  0  0  0  0  0  0  0  0  0
   13.4591   15.0638  -19.9817 C   0  0  0  0  0  0  0  0  0  0  0  0
   12.7855   14.1180  -20.9076 C   0  0  0  0  0  0  0  0  0  0  0  0
   13.1438   13.9105  -22.2297 C   0  0  0  0  0  0  0  0  0  0  0  0
   12.3427   12.9277  -22.7414 N   0  0  0  0  0  0  0  0  0  0  0  0
   11.4773   12.4905  -21.7805 C   0  0  0  0  0  0  0  0  0  0  0  0
   10.6009   11.4946  -21.9680 N   0  0  0  0  0  0  0  0  0  0  0  0
    9.9143   11.2373  -20.8480 C   0  0  0  0  0  0  0  0  0  0  0  0
   10.0155   11.8516  -19.6561 N   0  0  0  0  0  0  0  0  0  0  0  0
   10.8856   12.8870  -19.5090 C   0  0  0  0  0  0  0  0  0  0  0  0
   11.6902   13.2275  -20.6215 C   0  0  0  0  0  0  0  0  0  0  0  0
   12.3881   12.5392  -23.6721 H   0  0  0  0  0  0  0  0  0  0  0  0
   10.2363   13.9758  -11.9167 C   0  0  0  0  0  0  0  0  0  0  0  0
   10.3560   14.4515  -10.8638 N   0  0  0  0  0  0  0  0  0  0  0  0
   11.4045   15.2600  -13.9823 N   0  0  0  0  0  0  0  0  0  0  0  0
   10.8747   16.1224  -13.9040 H   0  0  0  0  0  0  0  0  0  0  0  0
   12.7892   15.4808  -13.9056 C   0  0  0  0  0  0  0  0  0  0  0  0
   13.3958   15.8788  -12.7164 C   0  0  0  0  0  0  0  0  0  0  0  0
   14.5879   16.5852  -12.7673 C   0  0  0  0  0  0  0  0  0  0  0  0
   15.2060   16.8186  -13.9973 C   0  0  0  0  0  0  0  0  0  0  0  0
   14.7601   16.2087  -15.1699 C   0  0  0  0  0  0  0  0  0  0  0  0
   13.5281   15.5313  -15.1005 C   0  0  0  0  0  0  0  0  0  0  0  0
   15.4271   16.2478  -16.5120 C   0  0  0  0  0  0  0  0  0  0  0  0
   15.4220   15.2192  -17.1959 O   0  0  0  0  0  0  0  0  0  0  0  0
   16.0928   17.3159  -17.0556 N   0  0  0  0  0  0  0  0  0  0  0  0
   16.5046   17.0398  -17.9413 H   0  0  0  0  0  0  0  0  0  0  0  0
   16.2757   18.7172  -16.7037 C   0  0  0  0  0  0  0  0  0  0  0  0
   17.5230   18.9168  -15.8551 C   0  0  0  0  0  0  0  0  0  0  0  0
   16.2772   19.5706  -17.9658 C   0  0  0  0  0  0  0  0  0  0  0  0
 10 11  1  0  0  0
 11 12  2  0  0  0
 12 13  1  0  0  0
 13 14  1  0  0  0
 14 15  2  0  0  0
 15 16  1  0  0  0
 16 17  2  0  0  0
 17 18  1  0  0  0
 18  3  1  0  0  0
  3  4  1  0  0  0
  4  5  1  0  0  0
  5  6  1  0  0  0
  6  1  1  0  0  0
  1  2  2  0  0  0
  2 21  1  0  0  0
 21 22  3  0  0  0
  1 23  1  0  0  0
 23 25  1  0  0  0
 25 26  2  0  0  0
 26 27  1  0  0  0
 27 28  2  0  0  0
 28 29  1  0  0  0
 29 31  1  0  0  0
 31 32  2  0  0  0
 31 33  1  0  0  0
 33 35  1  0  0  0
 35 36  1  0  0  0
 35 37  1  0  0  0
 29 30  2  0  0  0
 25 30  1  0  0  0
  6  7  1  0  0  0
  7  8  1  0  0  0
  7  9  1  0  0  0
  3  9  1  0  0  0
 18 19  2  0  0  0
 11 19  1  0  0  0
 14 19  1  0  0  0
 13 20  1  0  0  0
 23 24  1  0  0  0
 33 34  1  0  0  0
M  END
> <minimizedAffinity>
-9.63623

$$$$
mol_CHEMBL4649816_18


 37 40  0  0  0  0  0  0  0  0999 V2000
   10.6488   14.0369  -14.1804 C   0  0  0  0  0  0  0  0  0  0  0  0
   10.1008   13.3998  -13.1706 N   0  0  0  0  0  0  0  0  0  0  0  0
   11.0024   13.4714  -18.2880 N   0  0  0  0  0  0  0  0  0  0  0  0
    9.9348   14.3037  -17.7301 C   0  0  0  0  0  0  0  0  0  0  0  0
    9.4273   13.7821  -16.3621 C   0  0  0  0  0  0  0  0  0  0  0  0
   10.5513   13.4337  -15.4429 N   0  0  0  0  0  0  0  0  0  0  0  0
   11.4416   12.4201  -16.0635 C   0  0  0  0  0  0  0  0  0  0  0  0
   10.7630   11.0656  -16.2619 C   0  0  0  0  0  0  0  0  0  0  0  0
   12.0344   12.9887  -17.3765 C   0  0  0  0  0  0  0  0  0  0  0  0
   13.4871   15.0877  -20.0237 C   0  0  0  0  0  0  0  0  0  0  0  0
   12.7580   14.1830  -20.9491 C   0  0  0  0  0  0  0  0  0  0  0  0
   13.0591   14.0339  -22.2938 C   0  0  0  0  0  0  0  0  0  0  0  0
   12.2603   13.0496  -22.8054 N   0  0  0  0  0  0  0  0  0  0  0  0
   11.4535   12.5536  -21.8227 C   0  0  0  0  0  0  0  0  0  0  0  0
   10.6105   11.5278  -22.0024 N   0  0  0  0  0  0  0  0  0  0  0  0
    9.9773   11.2171  -20.8646 C   0  0  0  0  0  0  0  0  0  0  0  0
   10.0839   11.8198  -19.6672 N   0  0  0  0  0  0  0  0  0  0  0  0
   10.9119   12.8901  -19.5298 C   0  0  0  0  0  0  0  0  0  0  0  0
   11.6824   13.2704  -20.6539 C   0  0  0  0  0  0  0  0  0  0  0  0
   12.2771   12.6924  -23.7495 H   0  0  0  0  0  0  0  0  0  0  0  0
   10.1821   13.9160  -11.9445 C   0  0  0  0  0  0  0  0  0  0  0  0
   10.2920   14.3857  -10.8876 N   0  0  0  0  0  0  0  0  0  0  0  0
   11.3624   15.2105  -13.9958 N   0  0  0  0  0  0  0  0  0  0  0  0
   10.8245   16.0681  -13.9198 H   0  0  0  0  0  0  0  0  0  0  0  0
   12.7441   15.4414  -13.9029 C   0  0  0  0  0  0  0  0  0  0  0  0
   13.3309   15.8543  -12.7088 C   0  0  0  0  0  0  0  0  0  0  0  0
   14.5215   16.5642  -12.7489 C   0  0  0  0  0  0  0  0  0  0  0  0
   15.1580   16.7879  -13.9716 C   0  0  0  0  0  0  0  0  0  0  0  0
   14.7268   16.1726  -15.1471 C   0  0  0  0  0  0  0  0  0  0  0  0
   13.4986   15.4870  -15.0881 C   0  0  0  0  0  0  0  0  0  0  0  0
   15.4056   16.2109  -16.4836 C   0  0  0  0  0  0  0  0  0  0  0  0
   15.3937   15.1857  -17.1727 O   0  0  0  0  0  0  0  0  0  0  0  0
   16.0851   17.2740  -17.0196 N   0  0  0  0  0  0  0  0  0  0  0  0
   16.5000   16.9956  -17.9032 H   0  0  0  0  0  0  0  0  0  0  0  0
   16.2825   18.6717  -16.6625 C   0  0  0  0  0  0  0  0  0  0  0  0
   17.5410   18.8544  -15.8262 C   0  0  0  0  0  0  0  0  0  0  0  0
   16.2782   19.5335  -17.9186 C   0  0  0  0  0  0  0  0  0  0  0  0
 10 11  1  0  0  0
 11 12  2  0  0  0
 12 13  1  0  0  0
 13 14  1  0  0  0
 14 15  2  0  0  0
 15 16  1  0  0  0
 16 17  2  0  0  0
 17 18  1  0  0  0
 18  3  1  0  0  0
  3  4  1  0  0  0
  4  5  1  0  0  0
  5  6  1  0  0  0
  6  1  1  0  0  0
  1  2  2  0  0  0
  2 21  1  0  0  0
 21 22  3  0  0  0
  1 23  1  0  0  0
 23 25  1  0  0  0
 25 26  2  0  0  0
 26 27  1  0  0  0
 27 28  2  0  0  0
 28 29  1  0  0  0
 29 31  1  0  0  0
 31 32  2  0  0  0
 31 33  1  0  0  0
 33 35  1  0  0  0
 35 36  1  0  0  0
 35 37  1  0  0  0
 29 30  2  0  0  0
 25 30  1  0  0  0
  6  7  1  0  0  0
  7  8  1  0  0  0
  7  9  1  0  0  0
  3  9  1  0  0  0
 18 19  2  0  0  0
 11 19  1  0  0  0
 14 19  1  0  0  0
 13 20  1  0  0  0
 23 24  1  0  0  0
 33 34  1  0  0  0
M  END
> <minimizedAffinity>
-9.65448

$$$$
mol_CHEMBL3352853_19


 37 40  0  0  0  0  0  0  0  0999 V2000
   11.3613   12.5936  -19.5412 C   0  0  0  0  0  0  0  0  0  0  0  0
   12.3881   13.1934  -20.1002 N   0  0  0  0  0  0  0  0  0  0  0  0
   11.9116   13.8863  -15.6339 N   0  0  0  0  0  0  0  0  0  0  0  0
   12.2419   12.5209  -16.0419 C   0  0  0  0  0  0  0  0  0  0  0  0
   11.2618   11.9768  -17.1091 C   0  0  0  0  0  0  0  0  0  0  0  0
   11.0571   12.9530  -18.2201 N   0  0  0  0  0  0  0  0  0  0  0  0
   10.5358   14.2412  -17.6954 C   0  0  0  0  0  0  0  0  0  0  0  0
    9.1259   14.1274  -17.1170 C   0  0  0  0  0  0  0  0  0  0  0  0
   11.5454   14.8376  -16.6809 C   0  0  0  0  0  0  0  0  0  0  0  0
   14.5690   15.9743  -14.9470 C   0  0  0  0  0  0  0  0  0  0  0  0
   13.7425   15.8209  -13.7226 C   0  0  0  0  0  0  0  0  0  0  0  0
   14.0107   16.4498  -12.5171 C   0  0  0  0  0  0  0  0  0  0  0  0
   13.0102   16.1394  -11.6398 N   0  0  0  0  0  0  0  0  0  0  0  0
   12.0985   15.3266  -12.2488 C   0  0  0  0  0  0  0  0  0  0  0  0
   10.9775   14.8980  -11.6536 N   0  0  0  0  0  0  0  0  0  0  0  0
   10.2398   14.1564  -12.4880 C   0  0  0  0  0  0  0  0  0  0  0  0
   10.5158   13.8219  -13.7607 N   0  0  0  0  0  0  0  0  0  0  0  0
   11.6826   14.2370  -14.3250 C   0  0  0  0  0  0  0  0  0  0  0  0
   12.5283   15.0634  -13.5449 C   0  0  0  0  0  0  0  0  0  0  0  0
   12.9152   16.4764  -10.6929 H   0  0  0  0  0  0  0  0  0  0  0  0
   12.7407   12.8751  -21.3454 C   0  0  0  0  0  0  0  0  0  0  0  0
   13.0178   12.6264  -22.4457 N   0  0  0  0  0  0  0  0  0  0  0  0
   10.6646   11.5915  -20.1962 N   0  0  0  0  0  0  0  0  0  0  0  0
   11.2168   10.8863  -20.6742 H   0  0  0  0  0  0  0  0  0  0  0  0
    9.2861   11.3711  -20.3423 C   0  0  0  0  0  0  0  0  0  0  0  0
    8.4096   11.5184  -19.2696 C   0  0  0  0  0  0  0  0  0  0  0  0
    7.2118   10.8200  -19.2734 C   0  0  0  0  0  0  0  0  0  0  0  0
    6.8616   10.0454  -20.3813 C   0  0  0  0  0  0  0  0  0  0  0  0
    7.5940   10.0883  -21.5677 C   0  0  0  0  0  0  0  0  0  0  0  0
    8.8242   10.7709  -21.5262 C   0  0  0  0  0  0  0  0  0  0  0  0
    7.2367    9.4356  -22.8694 C   0  0  0  0  0  0  0  0  0  0  0  0
    7.4572    8.2266  -22.9955 O   0  0  0  0  0  0  0  0  0  0  0  0
    6.7168   10.0597  -23.9735 N   0  0  0  0  0  0  0  0  0  0  0  0
    6.6386    9.3900  -24.7323 H   0  0  0  0  0  0  0  0  0  0  0  0
    6.2049   11.3895  -24.2725 C   0  0  0  0  0  0  0  0  0  0  0  0
    7.3298   12.3442  -24.6448 C   0  0  0  0  0  0  0  0  0  0  0  0
    5.1269   11.2990  -25.3451 C   0  0  0  0  0  0  0  0  0  0  0  0
 10 11  1  0  0  0
 11 12  2  0  0  0
 12 13  1  0  0  0
 13 14  1  0  0  0
 14 15  2  0  0  0
 15 16  1  0  0  0
 16 17  2  0  0  0
 17 18  1  0  0  0
 18  3  1  0  0  0
  3  4  1  0  0  0
  4  5  1  0  0  0
  5  6  1  0  0  0
  6  1  1  0  0  0
  1  2  2  0  0  0
  2 21  1  0  0  0
 21 22  3  0  0  0
  1 23  1  0  0  0
 23 25  1  0  0  0
 25 26  2  0  0  0
 26 27  1  0  0  0
 27 28  2  0  0  0
 28 29  1  0  0  0
 29 31  1  0  0  0
 31 32  2  0  0  0
 31 33  1  0  0  0
 33 35  1  0  0  0
 35 36  1  0  0  0
 35 37  1  0  0  0
 29 30  2  0  0  0
 25 30  1  0  0  0
  6  7  1  0  0  0
  7  8  1  0  0  0
  7  9  1  0  0  0
  3  9  1  0  0  0
 18 19  2  0  0  0
 11 19  1  0  0  0
 14 19  1  0  0  0
 13 20  1  0  0  0
 23 24  1  0  0  0
 33 34  1  0  0  0
M  END
> <minimizedAffinity>
-9.52529

$$$$
mol_CHEMBL572170_20


 37 40  0  0  0  0  0  0  0  0999 V2000
   10.6507   14.0840  -14.2363 C   0  0  0  0  0  0  0  0  0  0  0  0
   10.0974   13.4606  -13.2211 N   0  0  0  0  0  0  0  0  0  0  0  0
   10.9253   13.4155  -18.3454 N   0  0  0  0  0  0  0  0  0  0  0  0
    9.8913   14.2868  -17.7924 C   0  0  0  0  0  0  0  0  0  0  0  0
    9.4069   13.8097  -16.4004 C   0  0  0  0  0  0  0  0  0  0  0  0
   10.5447   13.4731  -15.4939 N   0  0  0  0  0  0  0  0  0  0  0  0
   11.4229   12.4421  -16.1067 C   0  0  0  0  0  0  0  0  0  0  0  0
   10.7377   11.0857  -16.2661 C   0  0  0  0  0  0  0  0  0  0  0  0
   11.9867   12.9738  -17.4475 C   0  0  0  0  0  0  0  0  0  0  0  0
   13.4244   15.0439  -19.9983 C   0  0  0  0  0  0  0  0  0  0  0  0
   12.7597   14.1222  -20.9540 C   0  0  0  0  0  0  0  0  0  0  0  0
   13.1269   13.9468  -22.2780 C   0  0  0  0  0  0  0  0  0  0  0  0
   12.3325   12.9730  -22.8174 N   0  0  0  0  0  0  0  0  0  0  0  0
   11.4648   12.5086  -21.8713 C   0  0  0  0  0  0  0  0  0  0  0  0
   10.5956   11.5117  -22.0857 N   0  0  0  0  0  0  0  0  0  0  0  0
    9.9043   11.2260  -20.9754 C   0  0  0  0  0  0  0  0  0  0  0  0
    9.9931   11.8161  -19.7704 N   0  0  0  0  0  0  0  0  0  0  0  0
   10.8542   12.8551  -19.5963 C   0  0  0  0  0  0  0  0  0  0  0  0
   11.6657   13.2216  -20.6954 C   0  0  0  0  0  0  0  0  0  0  0  0
   12.3845   12.6070  -23.7567 H   0  0  0  0  0  0  0  0  0  0  0  0
   10.1828   13.9865  -11.9994 C   0  0  0  0  0  0  0  0  0  0  0  0
   10.2978   14.4585  -10.9441 N   0  0  0  0  0  0  0  0  0  0  0  0
   11.3752   15.2521  -14.0638 N   0  0  0  0  0  0  0  0  0  0  0  0
   10.8468   16.1171  -14.0110 H   0  0  0  0  0  0  0  0  0  0  0  0
   12.7596   15.4677  -13.9682 C   0  0  0  0  0  0  0  0  0  0  0  0
   13.3504   15.8619  -12.7697 C   0  0  0  0  0  0  0  0  0  0  0  0
   14.5424   16.5692  -12.8024 C   0  0  0  0  0  0  0  0  0  0  0  0
   15.1747   16.8089  -14.0238 C   0  0  0  0  0  0  0  0  0  0  0  0
   14.7457   16.2015  -15.2039 C   0  0  0  0  0  0  0  0  0  0  0  0
   13.5140   15.5221  -15.1533 C   0  0  0  0  0  0  0  0  0  0  0  0
   15.4309   16.2472  -16.5366 C   0  0  0  0  0  0  0  0  0  0  0  0
   15.4382   15.2212  -17.2242 O   0  0  0  0  0  0  0  0  0  0  0  0
   16.1013   17.3196  -17.0662 N   0  0  0  0  0  0  0  0  0  0  0  0
   16.5266   17.0485  -17.9471 H   0  0  0  0  0  0  0  0  0  0  0  0
   16.2744   18.7199  -16.7057 C   0  0  0  0  0  0  0  0  0  0  0  0
   17.5169   18.9230  -15.8511 C   0  0  0  0  0  0  0  0  0  0  0  0
   16.2744   19.5804  -17.9629 C   0  0  0  0  0  0  0  0  0  0  0  0
 10 11  1  0  0  0
 11 12  2  0  0  0
 12 13  1  0  0  0
 13 14  1  0  0  0
 14 15  2  0  0  0
 15 16  1  0  0  0
 16 17  2  0  0  0
 17 18  1  0  0  0
 18  3  1  0  0  0
  3  4  1  0  0  0
  4  5  1  0  0  0
  5  6  1  0  0  0
  6  1  1  0  0  0
  1  2  2  0  0  0
  2 21  1  0  0  0
 21 22  3  0  0  0
  1 23  1  0  0  0
 23 25  1  0  0  0
 25 26  2  0  0  0
 26 27  1  0  0  0
 27 28  2  0  0  0
 28 29  1  0  0  0
 29 31  1  0  0  0
 31 32  2  0  0  0
 31 33  1  0  0  0
 33 35  1  0  0  0
 35 36  1  0  0  0
 35 37  1  0  0  0
 29 30  2  0  0  0
 25 30  1  0  0  0
  6  7  1  0  0  0
  7  8  1  0  0  0
  7  9  1  0  0  0
  3  9  1  0  0  0
 18 19  2  0  0  0
 11 19  1  0  0  0
 14 19  1  0  0  0
 13 20  1  0  0  0
 23 24  1  0  0  0
 33 34  1  0  0  0
M  END
> <minimizedAffinity>
-9.64645

$$$$
mol_CHEMBL4087971_21


 37 40  0  0  0  0  0  0  0  0999 V2000
   10.6836   14.0646  -14.1250 C   0  0  0  0  0  0  0  0  0  0  0  0
   10.1402   13.4394  -13.1056 N   0  0  0  0  0  0  0  0  0  0  0  0
   10.9435   13.3894  -18.2342 N   0  0  0  0  0  0  0  0  0  0  0  0
    9.9129   14.2634  -17.6789 C   0  0  0  0  0  0  0  0  0  0  0  0
    9.4322   13.7891  -16.2846 C   0  0  0  0  0  0  0  0  0  0  0  0
   10.5725   13.4520  -15.3815 N   0  0  0  0  0  0  0  0  0  0  0  0
   11.4468   12.4186  -15.9955 C   0  0  0  0  0  0  0  0  0  0  0  0
   10.7587   11.0631  -16.1507 C   0  0  0  0  0  0  0  0  0  0  0  0
   12.0071   12.9471  -17.3390 C   0  0  0  0  0  0  0  0  0  0  0  0
   13.4085   15.0447  -19.9112 C   0  0  0  0  0  0  0  0  0  0  0  0
   12.7456   14.1147  -20.8600 C   0  0  0  0  0  0  0  0  0  0  0  0
   13.1024   13.9424  -22.1873 C   0  0  0  0  0  0  0  0  0  0  0  0
   12.3141   12.9593  -22.7185 N   0  0  0  0  0  0  0  0  0  0  0  0
   11.4605   12.4859  -21.7642 C   0  0  0  0  0  0  0  0  0  0  0  0
   10.6007   11.4791  -21.9698 N   0  0  0  0  0  0  0  0  0  0  0  0
    9.9229   11.1864  -20.8530 C   0  0  0  0  0  0  0  0  0  0  0  0
   10.0162   11.7786  -19.6493 N   0  0  0  0  0  0  0  0  0  0  0  0
   10.8671   12.8273  -19.4839 C   0  0  0  0  0  0  0  0  0  0  0  0
   11.6642   13.2020  -20.5907 C   0  0  0  0  0  0  0  0  0  0  0  0
   12.3616   12.5931  -23.6581 H   0  0  0  0  0  0  0  0  0  0  0  0
   10.2310   13.9670  -11.8851 C   0  0  0  0  0  0  0  0  0  0  0  0
   10.3323   14.3915  -10.8086 N   0  0  0  0  0  0  0  0  0  0  0  0
   11.4034   15.2365  -13.9585 N   0  0  0  0  0  0  0  0  0  0  0  0
   10.8704   16.0981  -13.8951 H   0  0  0  0  0  0  0  0  0  0  0  0
   12.7877   15.4604  -13.8817 C   0  0  0  0  0  0  0  0  0  0  0  0
   13.3908   15.8676  -12.6937 C   0  0  0  0  0  0  0  0  0  0  0  0
   14.5783   16.5810  -12.7468 C   0  0  0  0  0  0  0  0  0  0  0  0
   15.1943   16.8143  -13.9776 C   0  0  0  0  0  0  0  0  0  0  0  0
   14.7544   16.1950  -15.1474 C   0  0  0  0  0  0  0  0  0  0  0  0
   13.5271   15.5094  -15.0763 C   0  0  0  0  0  0  0  0  0  0  0  0
   15.4230   16.2337  -16.4887 C   0  0  0  0  0  0  0  0  0  0  0  0
   15.4093   15.2081  -17.1771 O   0  0  0  0  0  0  0  0  0  0  0  0
   16.0993   17.2984  -17.0262 N   0  0  0  0  0  0  0  0  0  0  0  0
   16.5102   17.0230  -17.9126 H   0  0  0  0  0  0  0  0  0  0  0  0
   16.2938   18.6962  -16.6669 C   0  0  0  0  0  0  0  0  0  0  0  0
   17.5442   18.8825  -15.8201 C   0  0  0  0  0  0  0  0  0  0  0  0
   16.2978   19.5566  -17.9242 C   0  0  0  0  0  0  0  0  0  0  0  0
 10 11  1  0  0  0
 11 12  2  0  0  0
 12 13  1  0  0  0
 13 14  1  0  0  0
 14 15  2  0  0  0
 15 16  1  0  0  0
 16 17  2  0  0  0
 17 18  1  0  0  0
 18  3  1  0  0  0
  3  4  1  0  0  0
  4  5  1  0  0  0
  5  6  1  0  0  0
  6  1  1  0  0  0
  1  2  2  0  0  0
  2 21  1  0  0  0
 21 22  3  0  0  0
  1 23  1  0  0  0
 23 25  1  0  0  0
 25 26  2  0  0  0
 26 27  1  0  0  0
 27 28  2  0  0  0
 28 29  1  0  0  0
 29 31  1  0  0  0
 31 32  2  0  0  0
 31 33  1  0  0  0
 33 35  1  0  0  0
 35 36  1  0  0  0
 35 37  1  0  0  0
 29 30  2  0  0  0
 25 30  1  0  0  0
  6  7  1  0  0  0
  7  8  1  0  0  0
  7  9  1  0  0  0
  3  9  1  0  0  0
 18 19  2  0  0  0
 11 19  1  0  0  0
 14 19  1  0  0  0
 13 20  1  0  0  0
 23 24  1  0  0  0
 33 34  1  0  0  0
M  END
> <minimizedAffinity>
-9.68336

$$$$
mol_CHEMBL3593768_22


 37 40  0  0  0  0  0  0  0  0999 V2000
   10.6697   14.0474  -14.1875 C   0  0  0  0  0  0  0  0  0  0  0  0
   10.1134   13.4105  -13.1817 N   0  0  0  0  0  0  0  0  0  0  0  0
   11.0456   13.4699  -18.2934 N   0  0  0  0  0  0  0  0  0  0  0  0
    9.9980   14.3258  -17.7364 C   0  0  0  0  0  0  0  0  0  0  0  0
    9.4687   13.8050  -16.3780 C   0  0  0  0  0  0  0  0  0  0  0  0
   10.5803   13.4440  -15.4501 N   0  0  0  0  0  0  0  0  0  0  0  0
   11.4642   12.4196  -16.0644 C   0  0  0  0  0  0  0  0  0  0  0  0
   10.7749   11.0700  -16.2590 C   0  0  0  0  0  0  0  0  0  0  0  0
   12.0685   12.9740  -17.3788 C   0  0  0  0  0  0  0  0  0  0  0  0
   13.4703   15.0729  -20.0218 C   0  0  0  0  0  0  0  0  0  0  0  0
   12.7722   14.1569  -20.9595 C   0  0  0  0  0  0  0  0  0  0  0  0
   13.0872   13.9857  -22.2974 C   0  0  0  0  0  0  0  0  0  0  0  0
   12.2815   13.0032  -22.8047 N   0  0  0  0  0  0  0  0  0  0  0  0
   11.4612   12.5260  -21.8231 C   0  0  0  0  0  0  0  0  0  0  0  0
   10.6017   11.5128  -21.9955 N   0  0  0  0  0  0  0  0  0  0  0  0
    9.9629   11.2212  -20.8545 C   0  0  0  0  0  0  0  0  0  0  0  0
   10.0846   11.8249  -19.6582 N   0  0  0  0  0  0  0  0  0  0  0  0
   10.9303   12.8814  -19.5294 C   0  0  0  0  0  0  0  0  0  0  0  0
   11.6967   13.2475  -20.6598 C   0  0  0  0  0  0  0  0  0  0  0  0
   12.3003   12.6378  -23.7455 H   0  0  0  0  0  0  0  0  0  0  0  0
   10.1850   13.9253  -11.9545 C   0  0  0  0  0  0  0  0  0  0  0  0
   10.2921   14.3830  -10.8919 N   0  0  0  0  0  0  0  0  0  0  0  0
   11.3783   15.2220  -13.9959 N   0  0  0  0  0  0  0  0  0  0  0  0
   10.8360   16.0741  -13.8934 H   0  0  0  0  0  0  0  0  0  0  0  0
   12.7580   15.4581  -13.9001 C   0  0  0  0  0  0  0  0  0  0  0  0
   13.3416   15.8743  -12.7056 C   0  0  0  0  0  0  0  0  0  0  0  0
   14.5385   16.5735  -12.7440 C   0  0  0  0  0  0  0  0  0  0  0  0
   15.1838   16.7864  -13.9651 C   0  0  0  0  0  0  0  0  0  0  0  0
   14.7437   16.1821  -15.1437 C   0  0  0  0  0  0  0  0  0  0  0  0
   13.5130   15.5013  -15.0845 C   0  0  0  0  0  0  0  0  0  0  0  0
   15.4127   16.2235  -16.4851 C   0  0  0  0  0  0  0  0  0  0  0  0
   15.3971   15.1993  -17.1759 O   0  0  0  0  0  0  0  0  0  0  0  0
   16.0818   17.2885  -17.0285 N   0  0  0  0  0  0  0  0  0  0  0  0
   16.4883   17.0107  -17.9161 H   0  0  0  0  0  0  0  0  0  0  0  0
   16.2816   18.6855  -16.6721 C   0  0  0  0  0  0  0  0  0  0  0  0
   17.5498   18.8636  -15.8493 C   0  0  0  0  0  0  0  0  0  0  0  0
   16.2653   19.5497  -17.9263 C   0  0  0  0  0  0  0  0  0  0  0  0
 10 11  1  0  0  0
 11 12  2  0  0  0
 12 13  1  0  0  0
 13 14  1  0  0  0
 14 15  2  0  0  0
 15 16  1  0  0  0
 16 17  2  0  0  0
 17 18  1  0  0  0
 18  3  1  0  0  0
  3  4  1  0  0  0
  4  5  1  0  0  0
  5  6  1  0  0  0
  6  1  1  0  0  0
  1  2  2  0  0  0
  2 21  1  0  0  0
 21 22  3  0  0  0
  1 23  1  0  0  0
 23 25  1  0  0  0
 25 26  2  0  0  0
 26 27  1  0  0  0
 27 28  2  0  0  0
 28 29  1  0  0  0
 29 31  1  0  0  0
 31 32  2  0  0  0
 31 33  1  0  0  0
 33 35  1  0  0  0
 35 36  1  0  0  0
 35 37  1  0  0  0
 29 30  2  0  0  0
 25 30  1  0  0  0
  6  7  1  0  0  0
  7  8  1  0  0  0
  7  9  1  0  0  0
  3  9  1  0  0  0
 18 19  2  0  0  0
 11 19  1  0  0  0
 14 19  1  0  0  0
 13 20  1  0  0  0
 23 24  1  0  0  0
 33 34  1  0  0  0
M  END
> <minimizedAffinity>
-9.65032

$$$$
mol_CHEMBL78377_23


 37 40  0  0  0  0  0  0  0  0999 V2000
   10.6758   14.0364  -14.1411 C   0  0  0  0  0  0  0  0  0  0  0  0
   10.1288   13.4158  -13.1201 N   0  0  0  0  0  0  0  0  0  0  0  0
   11.0641   13.4846  -18.2358 N   0  0  0  0  0  0  0  0  0  0  0  0
    9.9992   14.3083  -17.6599 C   0  0  0  0  0  0  0  0  0  0  0  0
    9.4678   13.7468  -16.3214 C   0  0  0  0  0  0  0  0  0  0  0  0
   10.5834   13.4077  -15.3915 N   0  0  0  0  0  0  0  0  0  0  0  0
   11.4868   12.4031  -16.0087 C   0  0  0  0  0  0  0  0  0  0  0  0
   10.8211   11.0414  -16.2032 C   0  0  0  0  0  0  0  0  0  0  0  0
   12.0844   12.9711  -17.3233 C   0  0  0  0  0  0  0  0  0  0  0  0
   13.5017   15.0829  -20.0694 C   0  0  0  0  0  0  0  0  0  0  0  0
   12.7668   14.1430  -20.9541 C   0  0  0  0  0  0  0  0  0  0  0  0
   13.0653   13.9371  -22.2917 C   0  0  0  0  0  0  0  0  0  0  0  0
   12.2503   12.9487  -22.7663 N   0  0  0  0  0  0  0  0  0  0  0  0
   11.4398   12.4987  -21.7647 C   0  0  0  0  0  0  0  0  0  0  0  0
   10.5747   11.4868  -21.9131 N   0  0  0  0  0  0  0  0  0  0  0  0
    9.9441   11.2165  -20.7642 C   0  0  0  0  0  0  0  0  0  0  0  0
   10.0811   11.8376  -19.5792 N   0  0  0  0  0  0  0  0  0  0  0  0
   10.9357   12.8909  -19.4702 C   0  0  0  0  0  0  0  0  0  0  0  0
   11.6927   13.2408  -20.6159 C   0  0  0  0  0  0  0  0  0  0  0  0
   12.2572   12.5606  -23.6982 H   0  0  0  0  0  0  0  0  0  0  0  0
   10.2070   13.9523  -11.9025 C   0  0  0  0  0  0  0  0  0  0  0  0
   10.3145   14.3990  -10.8355 N   0  0  0  0  0  0  0  0  0  0  0  0
   11.3832   15.2153  -13.9749 N   0  0  0  0  0  0  0  0  0  0  0  0
   10.8405   16.0702  -13.9009 H   0  0  0  0  0  0  0  0  0  0  0  0
   12.7627   15.4552  -13.8883 C   0  0  0  0  0  0  0  0  0  0  0  0
   13.3534   15.8710  -12.6974 C   0  0  0  0  0  0  0  0  0  0  0  0
   14.5449   16.5786  -12.7436 C   0  0  0  0  0  0  0  0  0  0  0  0
   15.1777   16.7979  -13.9695 C   0  0  0  0  0  0  0  0  0  0  0  0
   14.7382   16.1844  -15.1433 C   0  0  0  0  0  0  0  0  0  0  0  0
   13.5109   15.4990  -15.0769 C   0  0  0  0  0  0  0  0  0  0  0  0
   15.4051   16.2223  -16.4856 C   0  0  0  0  0  0  0  0  0  0  0  0
   15.3844   15.1981  -17.1760 O   0  0  0  0  0  0  0  0  0  0  0  0
   16.0804   17.2843  -17.0277 N   0  0  0  0  0  0  0  0  0  0  0  0
   16.4853   17.0059  -17.9160 H   0  0  0  0  0  0  0  0  0  0  0  0
   16.2848   18.6803  -16.6699 C   0  0  0  0  0  0  0  0  0  0  0  0
   17.5512   18.8557  -15.8439 C   0  0  0  0  0  0  0  0  0  0  0  0
   16.2724   19.5445  -17.9242 C   0  0  0  0  0  0  0  0  0  0  0  0
 10 11  1  0  0  0
 11 12  2  0  0  0
 12 13  1  0  0  0
 13 14  1  0  0  0
 14 15  2  0  0  0
 15 16  1  0  0  0
 16 17  2  0  0  0
 17 18  1  0  0  0
 18  3  1  0  0  0
  3  4  1  0  0  0
  4  5  1  0  0  0
  5  6  1  0  0  0
  6  1  1  0  0  0
  1  2  2  0  0  0
  2 21  1  0  0  0
 21 22  3  0  0  0
  1 23  1  0  0  0
 23 25  1  0  0  0
 25 26  2  0  0  0
 26 27  1  0  0  0
 27 28  2  0  0  0
 28 29  1  0  0  0
 29 31  1  0  0  0
 31 32  2  0  0  0
 31 33  1  0  0  0
 33 35  1  0  0  0
 35 36  1  0  0  0
 35 37  1  0  0  0
 29 30  2  0  0  0
 25 30  1  0  0  0
  6  7  1  0  0  0
  7  8  1  0  0  0
  7  9  1  0  0  0
  3  9  1  0  0  0
 18 19  2  0  0  0
 11 19  1  0  0  0
 14 19  1  0  0  0
 13 20  1  0  0  0
 23 24  1  0  0  0
 33 34  1  0  0  0
M  END
> <minimizedAffinity>
-9.68580

$$$$
mol_CHEMBL585734_24


 37 40  0  0  0  0  0  0  0  0999 V2000
   10.6692   14.0649  -14.1946 C   0  0  0  0  0  0  0  0  0  0  0  0
   10.1378   13.4124  -13.1859 N   0  0  0  0  0  0  0  0  0  0  0  0
   10.9928   13.4660  -18.3100 N   0  0  0  0  0  0  0  0  0  0  0  0
    9.9599   14.3431  -17.7596 C   0  0  0  0  0  0  0  0  0  0  0  0
    9.4462   13.8578  -16.3796 C   0  0  0  0  0  0  0  0  0  0  0  0
   10.5622   13.4773  -15.4633 N   0  0  0  0  0  0  0  0  0  0  0  0
   11.4223   12.4372  -16.0842 C   0  0  0  0  0  0  0  0  0  0  0  0
   10.7096   11.0991  -16.2688 C   0  0  0  0  0  0  0  0  0  0  0  0
   12.0240   12.9835  -17.3997 C   0  0  0  0  0  0  0  0  0  0  0  0
   13.4503   15.0618  -20.0134 C   0  0  0  0  0  0  0  0  0  0  0  0
   12.7714   14.1305  -20.9503 C   0  0  0  0  0  0  0  0  0  0  0  0
   13.1142   13.9429  -22.2792 C   0  0  0  0  0  0  0  0  0  0  0  0
   12.3172   12.9563  -22.7919 N   0  0  0  0  0  0  0  0  0  0  0  0
   11.4714   12.4963  -21.8240 C   0  0  0  0  0  0  0  0  0  0  0  0
   10.6100   11.4861  -22.0050 N   0  0  0  0  0  0  0  0  0  0  0  0
    9.9427   11.2118  -20.8766 C   0  0  0  0  0  0  0  0  0  0  0  0
   10.0430   11.8271  -19.6847 N   0  0  0  0  0  0  0  0  0  0  0  0
   10.8939   12.8788  -19.5469 C   0  0  0  0  0  0  0  0  0  0  0  0
   11.6854   13.2301  -20.6640 C   0  0  0  0  0  0  0  0  0  0  0  0
   12.3557   12.5784  -23.7272 H   0  0  0  0  0  0  0  0  0  0  0  0
   10.2249   13.9182  -11.9559 C   0  0  0  0  0  0  0  0  0  0  0  0
   10.2955   14.3184  -10.8672 N   0  0  0  0  0  0  0  0  0  0  0  0
   11.3707   15.2448  -14.0071 N   0  0  0  0  0  0  0  0  0  0  0  0
   10.8260   16.0963  -13.9134 H   0  0  0  0  0  0  0  0  0  0  0  0
   12.7507   15.4782  -13.9016 C   0  0  0  0  0  0  0  0  0  0  0  0
   13.3214   15.9137  -12.7070 C   0  0  0  0  0  0  0  0  0  0  0  0
   14.5361   16.5846  -12.7376 C   0  0  0  0  0  0  0  0  0  0  0  0
   15.2131   16.7582  -13.9496 C   0  0  0  0  0  0  0  0  0  0  0  0
   14.7541   16.1786  -15.1348 C   0  0  0  0  0  0  0  0  0  0  0  0
   13.5161   15.5081  -15.0801 C   0  0  0  0  0  0  0  0  0  0  0  0
   15.4145   16.2280  -16.4804 C   0  0  0  0  0  0  0  0  0  0  0  0
   15.3899   15.2085  -17.1779 O   0  0  0  0  0  0  0  0  0  0  0  0
   16.0662   17.2992  -17.0317 N   0  0  0  0  0  0  0  0  0  0  0  0
   16.4621   17.0254  -17.9255 H   0  0  0  0  0  0  0  0  0  0  0  0
   16.2731   18.6937  -16.6686 C   0  0  0  0  0  0  0  0  0  0  0  0
   17.5554   18.8492  -15.8599 C   0  0  0  0  0  0  0  0  0  0  0  0
   16.2611   19.5708  -17.9143 C   0  0  0  0  0  0  0  0  0  0  0  0
 10 11  1  0  0  0
 11 12  2  0  0  0
 12 13  1  0  0  0
 13 14  1  0  0  0
 14 15  2  0  0  0
 15 16  1  0  0  0
 16 17  2  0  0  0
 17 18  1  0  0  0
 18  3  1  0  0  0
  3  4  1  0  0  0
  4  5  1  0  0  0
  5  6  1  0  0  0
  6  1  1  0  0  0
  1  2  2  0  0  0
  2 21  1  0  0  0
 21 22  3  0  0  0
  1 23  1  0  0  0
 23 25  1  0  0  0
 25 26  2  0  0  0
 26 27  1  0  0  0
 27 28  2  0  0  0
 28 29  1  0  0  0
 29 31  1  0  0  0
 31 32  2  0  0  0
 31 33  1  0  0  0
 33 35  1  0  0  0
 35 36  1  0  0  0
 35 37  1  0  0  0
 29 30  2  0  0  0
 25 30  1  0  0  0
  6  7  1  0  0  0
  7  8  1  0  0  0
  7  9  1  0  0  0
  3  9  1  0  0  0
 18 19  2  0  0  0
 11 19  1  0  0  0
 14 19  1  0  0  0
 13 20  1  0  0  0
 23 24  1  0  0  0
 33 34  1  0  0  0
M  END
> <minimizedAffinity>
-9.64532

$$$$
