mol_CHEMBL3715062_0


 32 36  0  0  0  0  0  0  0  0999 V2000
   25.6136  -11.8561    8.7715 C   0  0  0  0  0  0  0  0  0  0  0  0
   25.3007  -12.9372    9.6006 C   0  0  0  0  0  0  0  0  0  0  0  0
   24.7770  -14.1115    9.0610 C   0  0  0  0  0  0  0  0  0  0  0  0
   24.5904  -14.2238    7.6844 C   0  0  0  0  0  0  0  0  0  0  0  0
   24.9195  -13.1631    6.8260 C   0  0  0  0  0  0  0  0  0  0  0  0
   25.4112  -11.9738    7.3913 C   0  0  0  0  0  0  0  0  0  0  0  0
   24.7142  -13.3417    5.3292 C   0  0  0  0  0  0  0  0  0  0  0  0
   24.0942  -14.7197    5.0193 C   0  0  0  0  0  0  0  0  0  0  0  0
   23.9028  -14.9275    3.5125 C   0  0  0  0  0  0  0  0  0  0  0  0
   23.1359  -13.7722    2.8635 C   0  0  0  0  0  0  0  0  0  0  0  0
   23.8215  -12.5358    3.2072 N   0  0  0  0  0  0  0  0  0  0  0  0
   23.9033  -12.2258    4.6335 C   0  0  0  0  0  0  0  0  0  0  0  0
   23.8393  -11.5061    2.2891 C   0  0  0  0  0  0  0  0  0  0  0  0
   23.0757  -11.5817    1.1680 N   0  0  0  0  0  0  0  0  0  0  0  0
   23.1484  -10.5884    0.2594 C   0  0  0  0  0  0  0  0  0  0  0  0
   23.9262   -9.4925    0.2808 N   0  0  0  0  0  0  0  0  0  0  0  0
   24.6904   -9.4694    1.3814 C   0  0  0  0  0  0  0  0  0  0  0  0
   25.6207   -8.5054    1.6607 N   0  0  0  0  0  0  0  0  0  0  0  0
   26.2534   -8.7966    2.8420 C   0  0  0  0  0  0  0  0  0  0  0  0
   25.7077   -9.9657    3.3283 C   0  0  0  0  0  0  0  0  0  0  0  0
   24.7063  -10.3993    2.4088 C   0  0  0  0  0  0  0  0  0  0  0  0
   25.8133   -7.7216    1.0548 H   0  0  0  0  0  0  0  0  0  0  0  0
   28.2952  -10.5966    8.4260 O   0  0  0  0  0  0  0  0  0  0  0  0
   27.4502  -10.2290    9.2337 C   0  0  0  0  0  0  0  0  0  0  0  0
   26.1632  -10.7085    9.3792 N   0  0  0  0  0  0  0  0  0  0  0  0
   25.5324  -10.1550    9.9458 H   0  0  0  0  0  0  0  0  0  0  0  0
   27.7866   -9.1120   10.1474 C   0  0  0  0  0  0  0  0  0  0  0  0
   28.6612   -9.3160   11.2217 C   0  0  0  0  0  0  0  0  0  0  0  0
   28.9979   -8.2446   12.0498 C   0  0  0  0  0  0  0  0  0  0  0  0
   28.4586   -6.9796   11.8085 C   0  0  0  0  0  0  0  0  0  0  0  0
   27.5894   -6.7781   10.7346 C   0  0  0  0  0  0  0  0  0  0  0  0
   27.2588   -7.8425    9.8954 C   0  0  0  0  0  0  0  0  0  0  0  0
 23 24  2  0  0  0
 24 25  1  0  0  0
 25  1  1  0  0  0
  1  2  2  0  0  0
  2  3  1  0  0  0
  3  4  2  0  0  0
  4  5  1  0  0  0
  7  8  1  0  0  0
  8  9  1  0  0  0
  9 10  1  0  0  0
 10 11  1  0  0  0
 11 13  1  0  0  0
 13 14  2  0  0  0
 14 15  1  0  0  0
 15 16  2  0  0  0
 16 17  1  0  0  0
 17 18  1  0  0  0
 18 19  1  0  0  0
 19 20  2  0  0  0
 20 21  1  0  0  0
 13 21  1  0  0  0
 17 21  2  0  0  0
 11 12  1  0  0  0
  7 12  1  0  0  0
  5  6  2  0  0  0
  1  6  1  0  0  0
 24 27  1  0  0  0
 27 28  2  0  0  0
 28 29  1  0  0  0
 29 30  2  0  0  0
 30 31  1  0  0  0
 31 32  2  0  0  0
 27 32  1  0  0  0
  7  5  1  0  0  0
 25 26  1  0  0  0
 18 22  1  0  0  0
M  END
> <minimizedAffinity>
-9.70829

$$$$
mol_CHEMBL78377_1


 32 36  0  0  0  0  0  0  0  0999 V2000
   24.0503  -15.3304    7.3379 C   0  0  0  0  0  0  0  0  0  0  0  0
   23.0881  -16.3112    7.0923 C   0  0  0  0  0  0  0  0  0  0  0  0
   22.6027  -16.5178    5.8048 C   0  0  0  0  0  0  0  0  0  0  0  0
   23.0508  -15.7182    4.7587 C   0  0  0  0  0  0  0  0  0  0  0  0
   23.9596  -14.6701    4.9859 C   0  0  0  0  0  0  0  0  0  0  0  0
   24.4442  -14.4826    6.2920 C   0  0  0  0  0  0  0  0  0  0  0  0
   24.3355  -13.7838    3.8043 C   0  0  0  0  0  0  0  0  0  0  0  0
   23.6904  -14.3415    2.5118 C   0  0  0  0  0  0  0  0  0  0  0  0
   24.0063  -13.4858    1.2834 C   0  0  0  0  0  0  0  0  0  0  0  0
   23.6522  -12.0194    1.5198 C   0  0  0  0  0  0  0  0  0  0  0  0
   24.3683  -11.5977    2.7095 N   0  0  0  0  0  0  0  0  0  0  0  0
   24.0322  -12.2756    3.9559 C   0  0  0  0  0  0  0  0  0  0  0  0
   24.9088  -10.3326    2.7365 C   0  0  0  0  0  0  0  0  0  0  0  0
   25.1498   -9.7200    3.9226 N   0  0  0  0  0  0  0  0  0  0  0  0
   25.5994   -8.4488    3.9168 C   0  0  0  0  0  0  0  0  0  0  0  0
   25.8245   -7.6475    2.8608 N   0  0  0  0  0  0  0  0  0  0  0  0
   25.5441   -8.2777    1.7118 C   0  0  0  0  0  0  0  0  0  0  0  0
   25.6165   -7.7057    0.4707 N   0  0  0  0  0  0  0  0  0  0  0  0
   25.2262   -8.6115   -0.4831 C   0  0  0  0  0  0  0  0  0  0  0  0
   24.9092   -9.7873    0.1636 C   0  0  0  0  0  0  0  0  0  0  0  0
   25.1082   -9.5838    1.5607 C   0  0  0  0  0  0  0  0  0  0  0  0
   25.8874   -6.7464    0.3112 H   0  0  0  0  0  0  0  0  0  0  0  0
   26.0425  -14.1935   10.1142 O   0  0  0  0  0  0  0  0  0  0  0  0
   25.3841  -14.0708    9.0823 C   0  0  0  0  0  0  0  0  0  0  0  0
   24.6346  -15.1258    8.6034 N   0  0  0  0  0  0  0  0  0  0  0  0
   24.5090  -15.8543    9.2964 H   0  0  0  0  0  0  0  0  0  0  0  0
   25.3368  -12.7478    8.4177 C   0  0  0  0  0  0  0  0  0  0  0  0
   24.1497  -12.0106    8.4573 C   0  0  0  0  0  0  0  0  0  0  0  0
   24.1145  -10.7299    7.9036 C   0  0  0  0  0  0  0  0  0  0  0  0
   25.2544  -10.1971    7.2974 C   0  0  0  0  0  0  0  0  0  0  0  0
   26.4250  -10.9517    7.2161 C   0  0  0  0  0  0  0  0  0  0  0  0
   26.4636  -12.2347    7.7607 C   0  0  0  0  0  0  0  0  0  0  0  0
 23 24  2  0  0  0
 24 25  1  0  0  0
 25  1  1  0  0  0
  1  2  2  0  0  0
  2  3  1  0  0  0
  3  4  2  0  0  0
  4  5  1  0  0  0
  7  8  1  0  0  0
  8  9  1  0  0  0
  9 10  1  0  0  0
 10 11  1  0  0  0
 11 13  1  0  0  0
 13 14  2  0  0  0
 14 15  1  0  0  0
 15 16  2  0  0  0
 16 17  1  0  0  0
 17 18  1  0  0  0
 18 19  1  0  0  0
 19 20  2  0  0  0
 20 21  1  0  0  0
 13 21  1  0  0  0
 17 21  2  0  0  0
 11 12  1  0  0  0
  7 12  1  0  0  0
  5  6  2  0  0  0
  1  6  1  0  0  0
 24 27  1  0  0  0
 27 28  2  0  0  0
 28 29  1  0  0  0
 29 30  2  0  0  0
 30 31  1  0  0  0
 31 32  2  0  0  0
 27 32  1  0  0  0
 25 26  1  0  0  0
 18 22  1  0  0  0
  7  5  1  0  0  0
M  END
> <minimizedAffinity>
-10.39282

$$$$
mol_CHEMBL4087971_2


 32 36  0  0  0  0  0  0  0  0999 V2000
   24.0540  -15.3524    7.3877 C   0  0  0  0  0  0  0  0  0  0  0  0
   23.1051  -16.3484    7.1510 C   0  0  0  0  0  0  0  0  0  0  0  0
   22.6113  -16.5630    5.8679 C   0  0  0  0  0  0  0  0  0  0  0  0
   23.0415  -15.7599    4.8170 C   0  0  0  0  0  0  0  0  0  0  0  0
   23.9414  -14.7021    5.0349 C   0  0  0  0  0  0  0  0  0  0  0  0
   24.4297  -14.5019    6.3376 C   0  0  0  0  0  0  0  0  0  0  0  0
   24.3075  -13.8234    3.8457 C   0  0  0  0  0  0  0  0  0  0  0  0
   23.6792  -14.4015    2.5552 C   0  0  0  0  0  0  0  0  0  0  0  0
   24.0115  -13.5593    1.3215 C   0  0  0  0  0  0  0  0  0  0  0  0
   23.6492  -12.0902    1.5317 C   0  0  0  0  0  0  0  0  0  0  0  0
   24.3328  -11.6475    2.7337 N   0  0  0  0  0  0  0  0  0  0  0  0
   23.9787  -12.3196    3.9787 C   0  0  0  0  0  0  0  0  0  0  0  0
   24.8883  -10.3885    2.7527 C   0  0  0  0  0  0  0  0  0  0  0  0
   25.1563   -9.7853    3.9388 N   0  0  0  0  0  0  0  0  0  0  0  0
   25.6277   -8.5223    3.9355 C   0  0  0  0  0  0  0  0  0  0  0  0
   25.8538   -7.7192    2.8819 N   0  0  0  0  0  0  0  0  0  0  0  0
   25.5468   -8.3370    1.7330 C   0  0  0  0  0  0  0  0  0  0  0  0
   25.6162   -7.7570    0.4955 N   0  0  0  0  0  0  0  0  0  0  0  0
   25.1963   -8.6472   -0.4599 C   0  0  0  0  0  0  0  0  0  0  0  0
   24.8630   -9.8210    0.1822 C   0  0  0  0  0  0  0  0  0  0  0  0
   25.0846   -9.6342    1.5787 C   0  0  0  0  0  0  0  0  0  0  0  0
   25.9049   -6.8023    0.3402 H   0  0  0  0  0  0  0  0  0  0  0  0
   26.0635  -14.1902   10.1392 O   0  0  0  0  0  0  0  0  0  0  0  0
   25.3952  -14.0781    9.1131 C   0  0  0  0  0  0  0  0  0  0  0  0
   24.6416  -15.1375    8.6500 N   0  0  0  0  0  0  0  0  0  0  0  0
   24.5161  -15.8583    9.3508 H   0  0  0  0  0  0  0  0  0  0  0  0
   25.3361  -12.7606    8.4377 C   0  0  0  0  0  0  0  0  0  0  0  0
   24.1500  -12.0225    8.4898 C   0  0  0  0  0  0  0  0  0  0  0  0
   24.1055  -10.7481    7.9223 C   0  0  0  0  0  0  0  0  0  0  0  0
   25.2346  -10.2228    7.2897 C   0  0  0  0  0  0  0  0  0  0  0  0
   26.4036  -10.9783    7.1971 C   0  0  0  0  0  0  0  0  0  0  0  0
   26.4517  -12.2546    7.7564 C   0  0  0  0  0  0  0  0  0  0  0  0
 23 24  2  0  0  0
 24 25  1  0  0  0
 25  1  1  0  0  0
  1  2  2  0  0  0
  2  3  1  0  0  0
  3  4  2  0  0  0
  4  5  1  0  0  0
  7  8  1  0  0  0
  8  9  1  0  0  0
  9 10  1  0  0  0
 10 11  1  0  0  0
 11 13  1  0  0  0
 13 14  2  0  0  0
 14 15  1  0  0  0
 15 16  2  0  0  0
 16 17  1  0  0  0
 17 18  1  0  0  0
 18 19  1  0  0  0
 19 20  2  0  0  0
 20 21  1  0  0  0
 13 21  1  0  0  0
 17 21  2  0  0  0
 11 12  1  0  0  0
  7 12  1  0  0  0
  5  6  2  0  0  0
  1  6  1  0  0  0
 24 27  1  0  0  0
 27 28  2  0  0  0
 28 29  1  0  0  0
 29 30  2  0  0  0
 30 31  1  0  0  0
 31 32  2  0  0  0
 27 32  1  0  0  0
 25 26  1  0  0  0
 18 22  1  0  0  0
  7  5  1  0  0  0
M  END
> <minimizedAffinity>
-10.49105

$$$$
mol_CHEMBL3715974_3


 32 36  0  0  0  0  0  0  0  0999 V2000
   24.1243  -15.1150    6.8584 C   0  0  0  0  0  0  0  0  0  0  0  0
   23.0390  -15.9711    6.6796 C   0  0  0  0  0  0  0  0  0  0  0  0
   22.3917  -16.0358    5.4463 C   0  0  0  0  0  0  0  0  0  0  0  0
   22.8206  -15.2376    4.3870 C   0  0  0  0  0  0  0  0  0  0  0  0
   23.8807  -14.3331    4.5520 C   0  0  0  0  0  0  0  0  0  0  0  0
   24.5036  -14.2675    5.8111 C   0  0  0  0  0  0  0  0  0  0  0  0
   24.3342  -13.5020    3.3571 C   0  0  0  0  0  0  0  0  0  0  0  0
   23.7434  -14.0366    2.0326 C   0  0  0  0  0  0  0  0  0  0  0  0
   24.1320  -13.1721    0.8243 C   0  0  0  0  0  0  0  0  0  0  0  0
   23.8469  -11.6860    1.0584 C   0  0  0  0  0  0  0  0  0  0  0  0
   24.5238  -11.3125    2.2870 N   0  0  0  0  0  0  0  0  0  0  0  0
   24.0589  -11.9906    3.4902 C   0  0  0  0  0  0  0  0  0  0  0  0
   24.9323  -10.0053    2.4602 C   0  0  0  0  0  0  0  0  0  0  0  0
   25.0397   -9.4644    3.6967 N   0  0  0  0  0  0  0  0  0  0  0  0
   25.4677   -8.1882    3.8024 C   0  0  0  0  0  0  0  0  0  0  0  0
   25.7941   -7.3271    2.8196 N   0  0  0  0  0  0  0  0  0  0  0  0
   25.6397   -7.8933    1.6146 C   0  0  0  0  0  0  0  0  0  0  0  0
   25.8582   -7.2685    0.4163 N   0  0  0  0  0  0  0  0  0  0  0  0
   25.5866   -8.1314   -0.6165 C   0  0  0  0  0  0  0  0  0  0  0  0
   25.1969   -9.3326   -0.0643 C   0  0  0  0  0  0  0  0  0  0  0  0
   25.2301   -9.1886    1.3534 C   0  0  0  0  0  0  0  0  0  0  0  0
   26.1576   -6.3086    0.3302 H   0  0  0  0  0  0  0  0  0  0  0  0
   26.4265  -14.2274    9.4781 O   0  0  0  0  0  0  0  0  0  0  0  0
   25.6377  -14.0118    8.5592 C   0  0  0  0  0  0  0  0  0  0  0  0
   24.8702  -15.0347    8.0487 N   0  0  0  0  0  0  0  0  0  0  0  0
   24.8579  -15.8435    8.6591 H   0  0  0  0  0  0  0  0  0  0  0  0
   25.4547  -12.6219    8.0856 C   0  0  0  0  0  0  0  0  0  0  0  0
   24.2677  -11.9543    8.3985 C   0  0  0  0  0  0  0  0  0  0  0  0
   24.0972  -10.6280    8.0007 C   0  0  0  0  0  0  0  0  0  0  0  0
   25.1007   -9.9793    7.2776 C   0  0  0  0  0  0  0  0  0  0  0  0
   26.2670  -10.6598    6.9272 C   0  0  0  0  0  0  0  0  0  0  0  0
   26.4400  -11.9873    7.3169 C   0  0  0  0  0  0  0  0  0  0  0  0
 23 24  2  0  0  0
 24 25  1  0  0  0
 25  1  1  0  0  0
  1  2  2  0  0  0
  2  3  1  0  0  0
  3  4  2  0  0  0
  4  5  1  0  0  0
  7  8  1  0  0  0
  8  9  1  0  0  0
  9 10  1  0  0  0
 10 11  1  0  0  0
 11 13  1  0  0  0
 13 14  2  0  0  0
 14 15  1  0  0  0
 15 16  2  0  0  0
 16 17  1  0  0  0
 17 18  1  0  0  0
 18 19  1  0  0  0
 19 20  2  0  0  0
 20 21  1  0  0  0
 13 21  1  0  0  0
 17 21  2  0  0  0
 11 12  1  0  0  0
  7 12  1  0  0  0
  5  6  2  0  0  0
  1  6  1  0  0  0
 24 27  1  0  0  0
 27 28  2  0  0  0
 28 29  1  0  0  0
 29 30  2  0  0  0
 30 31  1  0  0  0
 31 32  2  0  0  0
 27 32  1  0  0  0
 25 26  1  0  0  0
 18 22  1  0  0  0
  7  5  1  0  0  0
M  END
> <minimizedAffinity>
-9.95299

$$$$
mol_CHEMBL4069969_4


 32 36  0  0  0  0  0  0  0  0999 V2000
   24.0032  -15.4061    7.4704 C   0  0  0  0  0  0  0  0  0  0  0  0
   23.0570  -16.4087    7.2543 C   0  0  0  0  0  0  0  0  0  0  0  0
   22.5444  -16.6300    5.9793 C   0  0  0  0  0  0  0  0  0  0  0  0
   22.9608  -15.8345    4.9158 C   0  0  0  0  0  0  0  0  0  0  0  0
   23.8642  -14.7762    5.1132 C   0  0  0  0  0  0  0  0  0  0  0  0
   24.3623  -14.5627    6.4104 C   0  0  0  0  0  0  0  0  0  0  0  0
   24.2601  -13.9328    3.9071 C   0  0  0  0  0  0  0  0  0  0  0  0
   23.6183  -14.4935    2.6156 C   0  0  0  0  0  0  0  0  0  0  0  0
   23.9771  -13.6633    1.3789 C   0  0  0  0  0  0  0  0  0  0  0  0
   23.6757  -12.1789    1.5853 C   0  0  0  0  0  0  0  0  0  0  0  0
   24.3771  -11.7649    2.7866 N   0  0  0  0  0  0  0  0  0  0  0  0
   23.9815  -12.4185    4.0282 C   0  0  0  0  0  0  0  0  0  0  0  0
   24.9043  -10.4936    2.8440 C   0  0  0  0  0  0  0  0  0  0  0  0
   25.1901   -9.9228    4.0402 N   0  0  0  0  0  0  0  0  0  0  0  0
   25.6555   -8.6568    4.0581 C   0  0  0  0  0  0  0  0  0  0  0  0
   25.8593   -7.8256    3.0203 N   0  0  0  0  0  0  0  0  0  0  0  0
   25.5322   -8.4150    1.8621 C   0  0  0  0  0  0  0  0  0  0  0  0
   25.5796   -7.8092    0.6356 N   0  0  0  0  0  0  0  0  0  0  0  0
   25.1461   -8.6806   -0.3316 C   0  0  0  0  0  0  0  0  0  0  0  0
   24.8270   -9.8687    0.2906 C   0  0  0  0  0  0  0  0  0  0  0  0
   25.0713   -9.7090    1.6864 C   0  0  0  0  0  0  0  0  0  0  0  0
   25.8661   -6.8518    0.4944 H   0  0  0  0  0  0  0  0  0  0  0  0
   26.0662  -14.2222   10.1700 O   0  0  0  0  0  0  0  0  0  0  0  0
   25.3781  -14.1213    9.1559 C   0  0  0  0  0  0  0  0  0  0  0  0
   24.6135  -15.1835    8.7196 N   0  0  0  0  0  0  0  0  0  0  0  0
   24.4908  -15.8928    9.4326 H   0  0  0  0  0  0  0  0  0  0  0  0
   25.3013  -12.8106    8.4684 C   0  0  0  0  0  0  0  0  0  0  0  0
   24.1064  -12.0873    8.5160 C   0  0  0  0  0  0  0  0  0  0  0  0
   24.0425  -10.8224    7.9294 C   0  0  0  0  0  0  0  0  0  0  0  0
   25.1613  -10.2924    7.2824 C   0  0  0  0  0  0  0  0  0  0  0  0
   26.3397  -11.0337    7.1955 C   0  0  0  0  0  0  0  0  0  0  0  0
   26.4072  -12.3001    7.7745 C   0  0  0  0  0  0  0  0  0  0  0  0
 23 24  2  0  0  0
 24 25  1  0  0  0
 25  1  1  0  0  0
  1  2  2  0  0  0
  2  3  1  0  0  0
  3  4  2  0  0  0
  4  5  1  0  0  0
  7  8  1  0  0  0
  8  9  1  0  0  0
  9 10  1  0  0  0
 10 11  1  0  0  0
 11 13  1  0  0  0
 13 14  2  0  0  0
 14 15  1  0  0  0
 15 16  2  0  0  0
 16 17  1  0  0  0
 17 18  1  0  0  0
 18 19  1  0  0  0
 19 20  2  0  0  0
 20 21  1  0  0  0
 13 21  1  0  0  0
 17 21  2  0  0  0
 11 12  1  0  0  0
  7 12  1  0  0  0
  5  6  2  0  0  0
  1  6  1  0  0  0
 24 27  1  0  0  0
 27 28  2  0  0  0
 28 29  1  0  0  0
 29 30  2  0  0  0
 30 31  1  0  0  0
 31 32  2  0  0  0
 27 32  1  0  0  0
 25 26  1  0  0  0
 18 22  1  0  0  0
  7  5  1  0  0  0
M  END
> <minimizedAffinity>
-10.49183

$$$$
mol_CHEMBL3719354_5


 32 36  0  0  0  0  0  0  0  0999 V2000
   24.0027  -15.4035    7.5017 C   0  0  0  0  0  0  0  0  0  0  0  0
   23.1067  -16.4459    7.2562 C   0  0  0  0  0  0  0  0  0  0  0  0
   22.6308  -16.6805    5.9704 C   0  0  0  0  0  0  0  0  0  0  0  0
   23.0285  -15.8547    4.9248 C   0  0  0  0  0  0  0  0  0  0  0  0
   23.8762  -14.7558    5.1504 C   0  0  0  0  0  0  0  0  0  0  0  0
   24.3426  -14.5313    6.4572 C   0  0  0  0  0  0  0  0  0  0  0  0
   24.2173  -13.8701    3.9600 C   0  0  0  0  0  0  0  0  0  0  0  0
   23.7052  -14.5199    2.6538 C   0  0  0  0  0  0  0  0  0  0  0  0
   24.0664  -13.6829    1.4248 C   0  0  0  0  0  0  0  0  0  0  0  0
   23.5801  -12.2404    1.5665 C   0  0  0  0  0  0  0  0  0  0  0  0
   24.1183  -11.7134    2.8101 N   0  0  0  0  0  0  0  0  0  0  0  0
   23.7480  -12.4011    4.0402 C   0  0  0  0  0  0  0  0  0  0  0  0
   24.7926  -10.5151    2.7923 C   0  0  0  0  0  0  0  0  0  0  0  0
   25.2140   -9.9854    3.9722 N   0  0  0  0  0  0  0  0  0  0  0  0
   25.8327   -8.7895    3.9764 C   0  0  0  0  0  0  0  0  0  0  0  0
   26.0831   -7.9819    2.9348 N   0  0  0  0  0  0  0  0  0  0  0  0
   25.6284   -8.5155    1.7933 C   0  0  0  0  0  0  0  0  0  0  0  0
   25.6949   -7.8961    0.5755 N   0  0  0  0  0  0  0  0  0  0  0  0
   25.1100   -8.6855   -0.3797 C   0  0  0  0  0  0  0  0  0  0  0  0
   24.6726   -9.8358    0.2427 C   0  0  0  0  0  0  0  0  0  0  0  0
   25.0011   -9.7423    1.6290 C   0  0  0  0  0  0  0  0  0  0  0  0
   26.0931   -6.9790    0.4359 H   0  0  0  0  0  0  0  0  0  0  0  0
   25.9937  -14.2042   10.2491 O   0  0  0  0  0  0  0  0  0  0  0  0
   25.3353  -14.1104    9.2147 C   0  0  0  0  0  0  0  0  0  0  0  0
   24.5703  -15.1703    8.7699 N   0  0  0  0  0  0  0  0  0  0  0  0
   24.4174  -15.8697    9.4868 H   0  0  0  0  0  0  0  0  0  0  0  0
   25.2943  -12.8091    8.5056 C   0  0  0  0  0  0  0  0  0  0  0  0
   24.1178  -12.0548    8.5312 C   0  0  0  0  0  0  0  0  0  0  0  0
   24.0950  -10.7931    7.9339 C   0  0  0  0  0  0  0  0  0  0  0  0
   25.2357  -10.2979    7.2978 C   0  0  0  0  0  0  0  0  0  0  0  0
   26.3951  -11.0705    7.2320 C   0  0  0  0  0  0  0  0  0  0  0  0
   26.4221  -12.3334    7.8223 C   0  0  0  0  0  0  0  0  0  0  0  0
 23 24  2  0  0  0
 24 25  1  0  0  0
 25  1  1  0  0  0
  1  2  2  0  0  0
  2  3  1  0  0  0
  3  4  2  0  0  0
  4  5  1  0  0  0
  7  8  1  0  0  0
  8  9  1  0  0  0
  9 10  1  0  0  0
 10 11  1  0  0  0
 11 13  1  0  0  0
 13 14  2  0  0  0
 14 15  1  0  0  0
 15 16  2  0  0  0
 16 17  1  0  0  0
 17 18  1  0  0  0
 18 19  1  0  0  0
 19 20  2  0  0  0
 20 21  1  0  0  0
 13 21  1  0  0  0
 17 21  2  0  0  0
 11 12  1  0  0  0
  7 12  1  0  0  0
  5  6  2  0  0  0
  1  6  1  0  0  0
 24 27  1  0  0  0
 27 28  2  0  0  0
 28 29  1  0  0  0
 29 30  2  0  0  0
 30 31  1  0  0  0
 31 32  2  0  0  0
 27 32  1  0  0  0
 25 26  1  0  0  0
 18 22  1  0  0  0
  7  5  1  0  0  0
M  END
> <minimizedAffinity>
-10.74341

$$$$
mol_CHEMBL4545883_6


 32 36  0  0  0  0  0  0  0  0999 V2000
   24.0619  -15.3357    7.3538 C   0  0  0  0  0  0  0  0  0  0  0  0
   23.1031  -16.3207    7.1121 C   0  0  0  0  0  0  0  0  0  0  0  0
   22.6160  -16.5319    5.8258 C   0  0  0  0  0  0  0  0  0  0  0  0
   23.0594  -15.7328    4.7771 C   0  0  0  0  0  0  0  0  0  0  0  0
   23.9651  -14.6813    5.0004 C   0  0  0  0  0  0  0  0  0  0  0  0
   24.4512  -14.4890    6.3053 C   0  0  0  0  0  0  0  0  0  0  0  0
   24.3362  -13.7969    3.8159 C   0  0  0  0  0  0  0  0  0  0  0  0
   23.6910  -14.3596    2.5258 C   0  0  0  0  0  0  0  0  0  0  0  0
   24.0051  -13.5069    1.2949 C   0  0  0  0  0  0  0  0  0  0  0  0
   23.6487  -12.0403    1.5270 C   0  0  0  0  0  0  0  0  0  0  0  0
   24.3632  -11.6135    2.7160 N   0  0  0  0  0  0  0  0  0  0  0  0
   24.0281  -12.2893    3.9640 C   0  0  0  0  0  0  0  0  0  0  0  0
   24.8981  -10.3457    2.7406 C   0  0  0  0  0  0  0  0  0  0  0  0
   25.1357   -9.7299    3.9258 N   0  0  0  0  0  0  0  0  0  0  0  0
   25.5803   -8.4568    3.9180 C   0  0  0  0  0  0  0  0  0  0  0  0
   25.8030   -7.6567    2.8607 N   0  0  0  0  0  0  0  0  0  0  0  0
   25.5260   -8.2901    1.7127 C   0  0  0  0  0  0  0  0  0  0  0  0
   25.5976   -7.7201    0.4706 N   0  0  0  0  0  0  0  0  0  0  0  0
   25.2116   -8.6291   -0.4819 C   0  0  0  0  0  0  0  0  0  0  0  0
   24.8984   -9.8048    0.1667 C   0  0  0  0  0  0  0  0  0  0  0  0
   25.0954   -9.5982    1.5636 C   0  0  0  0  0  0  0  0  0  0  0  0
   25.8649   -6.7601    0.3096 H   0  0  0  0  0  0  0  0  0  0  0  0
   26.0555  -14.1863   10.1238 O   0  0  0  0  0  0  0  0  0  0  0  0
   25.3958  -14.0679    9.0922 C   0  0  0  0  0  0  0  0  0  0  0  0
   24.6466  -15.1252    8.6181 N   0  0  0  0  0  0  0  0  0  0  0  0
   24.5224  -15.8512    9.3141 H   0  0  0  0  0  0  0  0  0  0  0  0
   25.3467  -12.7472    8.4231 C   0  0  0  0  0  0  0  0  0  0  0  0
   24.1665  -12.0002    8.4816 C   0  0  0  0  0  0  0  0  0  0  0  0
   24.1309  -10.7221    7.9220 C   0  0  0  0  0  0  0  0  0  0  0  0
   25.2633  -10.2016    7.2914 C   0  0  0  0  0  0  0  0  0  0  0  0
   26.4261  -10.9658    7.1919 C   0  0  0  0  0  0  0  0  0  0  0  0
   26.4649  -12.2464    7.7425 C   0  0  0  0  0  0  0  0  0  0  0  0
 23 24  2  0  0  0
 24 25  1  0  0  0
 25  1  1  0  0  0
  1  2  2  0  0  0
  2  3  1  0  0  0
  3  4  2  0  0  0
  4  5  1  0  0  0
  7  8  1  0  0  0
  8  9  1  0  0  0
  9 10  1  0  0  0
 10 11  1  0  0  0
 11 13  1  0  0  0
 13 14  2  0  0  0
 14 15  1  0  0  0
 15 16  2  0  0  0
 16 17  1  0  0  0
 17 18  1  0  0  0
 18 19  1  0  0  0
 19 20  2  0  0  0
 20 21  1  0  0  0
 13 21  1  0  0  0
 17 21  2  0  0  0
 11 12  1  0  0  0
  7 12  1  0  0  0
  5  6  2  0  0  0
  1  6  1  0  0  0
 24 27  1  0  0  0
 27 28  2  0  0  0
 28 29  1  0  0  0
 29 30  2  0  0  0
 30 31  1  0  0  0
 31 32  2  0  0  0
 27 32  1  0  0  0
 25 26  1  0  0  0
 18 22  1  0  0  0
  7  5  1  0  0  0
M  END
> <minimizedAffinity>
-10.40411

$$$$
mol_CHEMBL4083165_7


 32 36  0  0  0  0  0  0  0  0999 V2000
   24.0639  -15.3378    7.3595 C   0  0  0  0  0  0  0  0  0  0  0  0
   23.1051  -16.3234    7.1200 C   0  0  0  0  0  0  0  0  0  0  0  0
   22.6141  -16.5339    5.8350 C   0  0  0  0  0  0  0  0  0  0  0  0
   23.0543  -15.7343    4.7855 C   0  0  0  0  0  0  0  0  0  0  0  0
   23.9612  -14.6833    5.0064 C   0  0  0  0  0  0  0  0  0  0  0  0
   24.4503  -14.4908    6.3101 C   0  0  0  0  0  0  0  0  0  0  0  0
   24.3302  -13.8000    3.8208 C   0  0  0  0  0  0  0  0  0  0  0  0
   23.6845  -14.3638    2.5317 C   0  0  0  0  0  0  0  0  0  0  0  0
   24.0018  -13.5134    1.3001 C   0  0  0  0  0  0  0  0  0  0  0  0
   23.6482  -12.0454    1.5290 C   0  0  0  0  0  0  0  0  0  0  0  0
   24.3596  -11.6175    2.7197 N   0  0  0  0  0  0  0  0  0  0  0  0
   24.0213  -12.2926    3.9673 C   0  0  0  0  0  0  0  0  0  0  0  0
   24.8982  -10.3511    2.7437 C   0  0  0  0  0  0  0  0  0  0  0  0
   25.1417   -9.7380    3.9292 N   0  0  0  0  0  0  0  0  0  0  0  0
   25.5911   -8.4667    3.9227 C   0  0  0  0  0  0  0  0  0  0  0  0
   25.8142   -7.6656    2.8665 N   0  0  0  0  0  0  0  0  0  0  0  0
   25.5314   -8.2957    1.7179 C   0  0  0  0  0  0  0  0  0  0  0  0
   25.6023   -7.7232    0.4770 N   0  0  0  0  0  0  0  0  0  0  0  0
   25.2099   -8.6285   -0.4764 C   0  0  0  0  0  0  0  0  0  0  0  0
   24.8930   -9.8042    0.1705 C   0  0  0  0  0  0  0  0  0  0  0  0
   25.0949   -9.6018    1.5675 C   0  0  0  0  0  0  0  0  0  0  0  0
   25.8736   -6.7642    0.3175 H   0  0  0  0  0  0  0  0  0  0  0  0
   26.0651  -14.1882   10.1236 O   0  0  0  0  0  0  0  0  0  0  0  0
   25.4022  -14.0698    9.0942 C   0  0  0  0  0  0  0  0  0  0  0  0
   24.6511  -15.1268    8.6226 N   0  0  0  0  0  0  0  0  0  0  0  0
   24.5281  -15.8525    9.3190 H   0  0  0  0  0  0  0  0  0  0  0  0
   25.3508  -12.7491    8.4254 C   0  0  0  0  0  0  0  0  0  0  0  0
   24.1701  -12.0030    8.4860 C   0  0  0  0  0  0  0  0  0  0  0  0
   24.1321  -10.7253    7.9254 C   0  0  0  0  0  0  0  0  0  0  0  0
   25.2625  -10.2045    7.2915 C   0  0  0  0  0  0  0  0  0  0  0  0
   26.4258  -10.9678    7.1902 C   0  0  0  0  0  0  0  0  0  0  0  0
   26.4672  -12.2477    7.7420 C   0  0  0  0  0  0  0  0  0  0  0  0
 23 24  2  0  0  0
 24 25  1  0  0  0
 25  1  1  0  0  0
  1  2  2  0  0  0
  2  3  1  0  0  0
  3  4  2  0  0  0
  4  5  1  0  0  0
  7  8  1  0  0  0
  8  9  1  0  0  0
  9 10  1  0  0  0
 10 11  1  0  0  0
 11 13  1  0  0  0
 13 14  2  0  0  0
 14 15  1  0  0  0
 15 16  2  0  0  0
 16 17  1  0  0  0
 17 18  1  0  0  0
 18 19  1  0  0  0
 19 20  2  0  0  0
 20 21  1  0  0  0
 13 21  1  0  0  0
 17 21  2  0  0  0
 11 12  1  0  0  0
  7 12  1  0  0  0
  5  6  2  0  0  0
  1  6  1  0  0  0
 24 27  1  0  0  0
 27 28  2  0  0  0
 28 29  1  0  0  0
 29 30  2  0  0  0
 30 31  1  0  0  0
 31 32  2  0  0  0
 27 32  1  0  0  0
 25 26  1  0  0  0
 18 22  1  0  0  0
  7  5  1  0  0  0
M  END
> <minimizedAffinity>
-10.41823

$$$$
mol_CHEMBL3716162_8


 32 36  0  0  0  0  0  0  0  0999 V2000
   27.2054   -3.0321   11.2370 C   0  0  0  0  0  0  0  0  0  0  0  0
   28.1989   -2.4053   10.4795 C   0  0  0  0  0  0  0  0  0  0  0  0
   28.9774   -3.1223    9.5815 C   0  0  0  0  0  0  0  0  0  0  0  0
   28.8288   -4.4967    9.4980 C   0  0  0  0  0  0  0  0  0  0  0  0
   27.9410   -5.1830   10.3478 C   0  0  0  0  0  0  0  0  0  0  0  0
   27.1156   -4.4345   11.2078 C   0  0  0  0  0  0  0  0  0  0  0  0
   28.0857   -6.6980   10.3826 C   0  0  0  0  0  0  0  0  0  0  0  0
   28.7883   -7.0486   11.7165 C   0  0  0  0  0  0  0  0  0  0  0  0
   29.0760   -8.5407   11.8212 C   0  0  0  0  0  0  0  0  0  0  0  0
   27.7881   -9.3439   11.6544 C   0  0  0  0  0  0  0  0  0  0  0  0
   27.1805   -8.9832   10.3719 N   0  0  0  0  0  0  0  0  0  0  0  0
   26.8256   -7.5715   10.2041 C   0  0  0  0  0  0  0  0  0  0  0  0
   27.2300   -9.9337    9.3689 C   0  0  0  0  0  0  0  0  0  0  0  0
   28.4397  -10.1310    8.7629 N   0  0  0  0  0  0  0  0  0  0  0  0
   28.5670  -11.0251    7.7678 C   0  0  0  0  0  0  0  0  0  0  0  0
   27.6145  -11.7956    7.2338 N   0  0  0  0  0  0  0  0  0  0  0  0
   26.4342  -11.5821    7.8293 C   0  0  0  0  0  0  0  0  0  0  0  0
   25.2821  -12.2180    7.4605 N   0  0  0  0  0  0  0  0  0  0  0  0
   24.2419  -11.7718    8.2286 C   0  0  0  0  0  0  0  0  0  0  0  0
   24.7476  -10.8372    9.1091 C   0  0  0  0  0  0  0  0  0  0  0  0
   26.1516  -10.7078    8.8746 C   0  0  0  0  0  0  0  0  0  0  0  0
   25.2345  -12.8961    6.7136 H   0  0  0  0  0  0  0  0  0  0  0  0
   25.1027   -0.5032   12.7280 O   0  0  0  0  0  0  0  0  0  0  0  0
   25.6194   -1.1395   11.8121 C   0  0  0  0  0  0  0  0  0  0  0  0
   26.3204   -2.3077   12.0665 N   0  0  0  0  0  0  0  0  0  0  0  0
   26.1543   -2.6654   12.9996 H   0  0  0  0  0  0  0  0  0  0  0  0
   25.4197   -0.6775   10.4179 C   0  0  0  0  0  0  0  0  0  0  0  0
   26.3133    0.2482    9.8691 C   0  0  0  0  0  0  0  0  0  0  0  0
   26.2419    0.5461    8.5065 C   0  0  0  0  0  0  0  0  0  0  0  0
   25.2690   -0.0589    7.7063 C   0  0  0  0  0  0  0  0  0  0  0  0
   24.3401   -0.9348    8.2694 C   0  0  0  0  0  0  0  0  0  0  0  0
   24.4025   -1.2332    9.6300 C   0  0  0  0  0  0  0  0  0  0  0  0
 23 24  2  0  0  0
 24 25  1  0  0  0
 25  1  1  0  0  0
  1  2  2  0  0  0
  2  3  1  0  0  0
  3  4  2  0  0  0
  4  5  1  0  0  0
  7  8  1  0  0  0
  8  9  1  0  0  0
  9 10  1  0  0  0
 10 11  1  0  0  0
 11 13  1  0  0  0
 13 14  2  0  0  0
 14 15  1  0  0  0
 15 16  2  0  0  0
 16 17  1  0  0  0
 17 18  1  0  0  0
 18 19  1  0  0  0
 19 20  2  0  0  0
 20 21  1  0  0  0
 13 21  1  0  0  0
 17 21  2  0  0  0
 11 12  1  0  0  0
  7 12  1  0  0  0
  5  6  2  0  0  0
  1  6  1  0  0  0
 24 27  1  0  0  0
 27 28  2  0  0  0
 28 29  1  0  0  0
 29 30  2  0  0  0
 30 31  1  0  0  0
 31 32  2  0  0  0
 27 32  1  0  0  0
 25 26  1  0  0  0
 18 22  1  0  0  0
  7  5  1  0  0  0
M  END
> <minimizedAffinity>
-9.34674

$$$$
mol_CHEMBL4649816_9


 32 36  0  0  0  0  0  0  0  0999 V2000
   24.0541  -15.3594    7.4007 C   0  0  0  0  0  0  0  0  0  0  0  0
   23.1080  -16.3582    7.1640 C   0  0  0  0  0  0  0  0  0  0  0  0
   22.6142  -16.5733    5.8810 C   0  0  0  0  0  0  0  0  0  0  0  0
   23.0419  -15.7686    4.8304 C   0  0  0  0  0  0  0  0  0  0  0  0
   23.9395  -14.7089    5.0483 C   0  0  0  0  0  0  0  0  0  0  0  0
   24.4272  -14.5075    6.3510 C   0  0  0  0  0  0  0  0  0  0  0  0
   24.3047  -13.8304    3.8588 C   0  0  0  0  0  0  0  0  0  0  0  0
   23.6775  -14.4091    2.5681 C   0  0  0  0  0  0  0  0  0  0  0  0
   24.0126  -13.5677    1.3346 C   0  0  0  0  0  0  0  0  0  0  0  0
   23.6507  -12.0981    1.5429 C   0  0  0  0  0  0  0  0  0  0  0  0
   24.3308  -11.6548    2.7469 N   0  0  0  0  0  0  0  0  0  0  0  0
   23.9742  -12.3270    3.9909 C   0  0  0  0  0  0  0  0  0  0  0  0
   24.8933  -10.3989    2.7651 C   0  0  0  0  0  0  0  0  0  0  0  0
   25.1733   -9.8013    3.9513 N   0  0  0  0  0  0  0  0  0  0  0  0
   25.6529   -8.5413    3.9492 C   0  0  0  0  0  0  0  0  0  0  0  0
   25.8771   -7.7363    2.8968 N   0  0  0  0  0  0  0  0  0  0  0  0
   25.5586   -8.3481    1.7480 C   0  0  0  0  0  0  0  0  0  0  0  0
   25.6238   -7.7641    0.5123 N   0  0  0  0  0  0  0  0  0  0  0  0
   25.1914   -8.6478   -0.4436 C   0  0  0  0  0  0  0  0  0  0  0  0
   24.8542   -9.8215    0.1965 C   0  0  0  0  0  0  0  0  0  0  0  0
   25.0865   -9.6416    1.5922 C   0  0  0  0  0  0  0  0  0  0  0  0
   25.9182   -6.8109    0.3585 H   0  0  0  0  0  0  0  0  0  0  0  0
   26.0651  -14.1955   10.1503 O   0  0  0  0  0  0  0  0  0  0  0  0
   25.3961  -14.0845    9.1247 C   0  0  0  0  0  0  0  0  0  0  0  0
   24.6416  -15.1440    8.6629 N   0  0  0  0  0  0  0  0  0  0  0  0
   24.5154  -15.8639    9.3645 H   0  0  0  0  0  0  0  0  0  0  0  0
   25.3360  -12.7675    8.4479 C   0  0  0  0  0  0  0  0  0  0  0  0
   24.1512  -12.0278    8.5035 C   0  0  0  0  0  0  0  0  0  0  0  0
   24.1064  -10.7539    7.9347 C   0  0  0  0  0  0  0  0  0  0  0  0
   25.2340  -10.2311    7.2973 C   0  0  0  0  0  0  0  0  0  0  0  0
   26.4016  -10.9883    7.2013 C   0  0  0  0  0  0  0  0  0  0  0  0
   26.4499  -12.2639    7.7620 C   0  0  0  0  0  0  0  0  0  0  0  0
 23 24  2  0  0  0
 24 25  1  0  0  0
 25  1  1  0  0  0
  1  2  2  0  0  0
  2  3  1  0  0  0
  3  4  2  0  0  0
  4  5  1  0  0  0
  7  8  1  0  0  0
  8  9  1  0  0  0
  9 10  1  0  0  0
 10 11  1  0  0  0
 11 13  1  0  0  0
 13 14  2  0  0  0
 14 15  1  0  0  0
 15 16  2  0  0  0
 16 17  1  0  0  0
 17 18  1  0  0  0
 18 19  1  0  0  0
 19 20  2  0  0  0
 20 21  1  0  0  0
 13 21  1  0  0  0
 17 21  2  0  0  0
 11 12  1  0  0  0
  7 12  1  0  0  0
  5  6  2  0  0  0
  1  6  1  0  0  0
 24 27  1  0  0  0
 27 28  2  0  0  0
 28 29  1  0  0  0
 29 30  2  0  0  0
 30 31  1  0  0  0
 31 32  2  0  0  0
 27 32  1  0  0  0
 25 26  1  0  0  0
 18 22  1  0  0  0
  7  5  1  0  0  0
M  END
> <minimizedAffinity>
-10.51485

$$$$
mol_CHEMBL3593768_10


 32 36  0  0  0  0  0  0  0  0999 V2000
   24.0136  -15.3983    7.4616 C   0  0  0  0  0  0  0  0  0  0  0  0
   23.0704  -16.4027    7.2394 C   0  0  0  0  0  0  0  0  0  0  0  0
   22.5662  -16.6251    5.9615 C   0  0  0  0  0  0  0  0  0  0  0  0
   22.9867  -15.8279    4.9012 C   0  0  0  0  0  0  0  0  0  0  0  0
   23.8857  -14.7668    5.1045 C   0  0  0  0  0  0  0  0  0  0  0  0
   24.3768  -14.5529    6.4043 C   0  0  0  0  0  0  0  0  0  0  0  0
   24.2791  -13.9182    3.9015 C   0  0  0  0  0  0  0  0  0  0  0  0
   23.6417  -14.4825    2.6094 C   0  0  0  0  0  0  0  0  0  0  0  0
   23.9998  -13.6518    1.3733 C   0  0  0  0  0  0  0  0  0  0  0  0
   23.6886  -12.1696    1.5781 C   0  0  0  0  0  0  0  0  0  0  0  0
   24.3846  -11.7496    2.7808 N   0  0  0  0  0  0  0  0  0  0  0  0
   23.9926  -12.4052    4.0227 C   0  0  0  0  0  0  0  0  0  0  0  0
   24.9103  -10.4775    2.8327 C   0  0  0  0  0  0  0  0  0  0  0  0
   25.1868   -9.8992    4.0278 N   0  0  0  0  0  0  0  0  0  0  0  0
   25.6454   -8.6308    4.0429 C   0  0  0  0  0  0  0  0  0  0  0  0
   25.8504   -7.8034    3.0026 N   0  0  0  0  0  0  0  0  0  0  0  0
   25.5332   -8.3999    1.8453 C   0  0  0  0  0  0  0  0  0  0  0  0
   25.5833   -7.7984    0.6169 N   0  0  0  0  0  0  0  0  0  0  0  0
   25.1599   -8.6760   -0.3492 C   0  0  0  0  0  0  0  0  0  0  0  0
   24.8442   -9.8635    0.2761 C   0  0  0  0  0  0  0  0  0  0  0  0
   25.0804   -9.6972    1.6725 C   0  0  0  0  0  0  0  0  0  0  0  0
   25.8644   -6.8396    0.4737 H   0  0  0  0  0  0  0  0  0  0  0  0
   26.0590  -14.2135   10.1743 O   0  0  0  0  0  0  0  0  0  0  0  0
   25.3765  -14.1131    9.1565 C   0  0  0  0  0  0  0  0  0  0  0  0
   24.6160  -15.1764    8.7150 N   0  0  0  0  0  0  0  0  0  0  0  0
   24.4904  -15.8868    9.4263 H   0  0  0  0  0  0  0  0  0  0  0  0
   25.3018  -12.8023    8.4689 C   0  0  0  0  0  0  0  0  0  0  0  0
   24.1081  -12.0770    8.5159 C   0  0  0  0  0  0  0  0  0  0  0  0
   24.0474  -10.8108    7.9318 C   0  0  0  0  0  0  0  0  0  0  0  0
   25.1682  -10.2814    7.2878 C   0  0  0  0  0  0  0  0  0  0  0  0
   26.3454  -11.0247    7.2012 C   0  0  0  0  0  0  0  0  0  0  0  0
   26.4097  -12.2925    7.7777 C   0  0  0  0  0  0  0  0  0  0  0  0
 23 24  2  0  0  0
 24 25  1  0  0  0
 25  1  1  0  0  0
  1  2  2  0  0  0
  2  3  1  0  0  0
  3  4  2  0  0  0
  4  5  1  0  0  0
  7  8  1  0  0  0
  8  9  1  0  0  0
  9 10  1  0  0  0
 10 11  1  0  0  0
 11 13  1  0  0  0
 13 14  2  0  0  0
 14 15  1  0  0  0
 15 16  2  0  0  0
 16 17  1  0  0  0
 17 18  1  0  0  0
 18 19  1  0  0  0
 19 20  2  0  0  0
 20 21  1  0  0  0
 13 21  1  0  0  0
 17 21  2  0  0  0
 11 12  1  0  0  0
  7 12  1  0  0  0
  5  6  2  0  0  0
  1  6  1  0  0  0
 24 27  1  0  0  0
 27 28  2  0  0  0
 28 29  1  0  0  0
 29 30  2  0  0  0
 30 31  1  0  0  0
 31 32  2  0  0  0
 27 32  1  0  0  0
 25 26  1  0  0  0
 18 22  1  0  0  0
  7  5  1  0  0  0
M  END
> <minimizedAffinity>
-10.49355

$$$$
mol_CHEMBL3718794_11


 32 36  0  0  0  0  0  0  0  0999 V2000
   24.0302  -15.3908    7.4470 C   0  0  0  0  0  0  0  0  0  0  0  0
   23.0616  -16.3713    7.2250 C   0  0  0  0  0  0  0  0  0  0  0  0
   22.5529  -16.5844    5.9473 C   0  0  0  0  0  0  0  0  0  0  0  0
   22.9945  -15.8009    4.8859 C   0  0  0  0  0  0  0  0  0  0  0  0
   23.9238  -14.7660    5.0881 C   0  0  0  0  0  0  0  0  0  0  0  0
   24.4194  -14.5601    6.3871 C   0  0  0  0  0  0  0  0  0  0  0  0
   24.3185  -13.9166    3.8874 C   0  0  0  0  0  0  0  0  0  0  0  0
   23.6352  -14.4585    2.6115 C   0  0  0  0  0  0  0  0  0  0  0  0
   23.9972  -13.6380    1.3718 C   0  0  0  0  0  0  0  0  0  0  0  0
   23.7385  -12.1476    1.5860 C   0  0  0  0  0  0  0  0  0  0  0  0
   24.4690  -11.7432    2.7767 N   0  0  0  0  0  0  0  0  0  0  0  0
   24.0797  -12.3967    4.0240 C   0  0  0  0  0  0  0  0  0  0  0  0
   24.9367  -10.4450    2.8380 C   0  0  0  0  0  0  0  0  0  0  0  0
   25.1552   -9.8527    4.0392 N   0  0  0  0  0  0  0  0  0  0  0  0
   25.5525   -8.5641    4.0653 C   0  0  0  0  0  0  0  0  0  0  0  0
   25.7494   -7.7296    3.0297 N   0  0  0  0  0  0  0  0  0  0  0  0
   25.4944   -8.3415    1.8650 C   0  0  0  0  0  0  0  0  0  0  0  0
   25.5563   -7.7391    0.6378 N   0  0  0  0  0  0  0  0  0  0  0  0
   25.2030   -8.6355   -0.3391 C   0  0  0  0  0  0  0  0  0  0  0  0
   24.9189   -9.8349    0.2787 C   0  0  0  0  0  0  0  0  0  0  0  0
   25.1048   -9.6580    1.6815 C   0  0  0  0  0  0  0  0  0  0  0  0
   25.7999   -6.7691    0.5014 H   0  0  0  0  0  0  0  0  0  0  0  0
   26.0716  -14.2201   10.1688 O   0  0  0  0  0  0  0  0  0  0  0  0
   25.3889  -14.1146    9.1520 C   0  0  0  0  0  0  0  0  0  0  0  0
   24.6256  -15.1738    8.7048 N   0  0  0  0  0  0  0  0  0  0  0  0
   24.4972  -15.8878    9.4121 H   0  0  0  0  0  0  0  0  0  0  0  0
   25.3152  -12.8014    8.4698 C   0  0  0  0  0  0  0  0  0  0  0  0
   24.1245  -12.0715    8.5232 C   0  0  0  0  0  0  0  0  0  0  0  0
   24.0687  -10.8017    7.9464 C   0  0  0  0  0  0  0  0  0  0  0  0
   25.1906  -10.2743    7.3024 C   0  0  0  0  0  0  0  0  0  0  0  0
   26.3645  -11.0222    7.2100 C   0  0  0  0  0  0  0  0  0  0  0  0
   26.4249  -12.2926    7.7809 C   0  0  0  0  0  0  0  0  0  0  0  0
 23 24  2  0  0  0
 24 25  1  0  0  0
 25  1  1  0  0  0
  1  2  2  0  0  0
  2  3  1  0  0  0
  3  4  2  0  0  0
  4  5  1  0  0  0
  7  8  1  0  0  0
  8  9  1  0  0  0
  9 10  1  0  0  0
 10 11  1  0  0  0
 11 13  1  0  0  0
 13 14  2  0  0  0
 14 15  1  0  0  0
 15 16  2  0  0  0
 16 17  1  0  0  0
 17 18  1  0  0  0
 18 19  1  0  0  0
 19 20  2  0  0  0
 20 21  1  0  0  0
 13 21  1  0  0  0
 17 21  2  0  0  0
 11 12  1  0  0  0
  7 12  1  0  0  0
  5  6  2  0  0  0
  1  6  1  0  0  0
 24 27  1  0  0  0
 27 28  2  0  0  0
 28 29  1  0  0  0
 29 30  2  0  0  0
 30 31  1  0  0  0
 31 32  2  0  0  0
 27 32  1  0  0  0
 25 26  1  0  0  0
 18 22  1  0  0  0
  7  5  1  0  0  0
M  END
> <minimizedAffinity>
-10.34880

$$$$
mol_CHEMBL572170_12


 32 36  0  0  0  0  0  0  0  0999 V2000
   24.0257  -15.3902    7.4473 C   0  0  0  0  0  0  0  0  0  0  0  0
   23.0591  -16.3726    7.2256 C   0  0  0  0  0  0  0  0  0  0  0  0
   22.5511  -16.5874    5.9479 C   0  0  0  0  0  0  0  0  0  0  0  0
   22.9916  -15.8037    4.8862 C   0  0  0  0  0  0  0  0  0  0  0  0
   23.9189  -14.7670    5.0881 C   0  0  0  0  0  0  0  0  0  0  0  0
   24.4136  -14.5594    6.3871 C   0  0  0  0  0  0  0  0  0  0  0  0
   24.3126  -13.9176    3.8871 C   0  0  0  0  0  0  0  0  0  0  0  0
   23.6258  -14.4576    2.6123 C   0  0  0  0  0  0  0  0  0  0  0  0
   23.9867  -13.6371    1.3722 C   0  0  0  0  0  0  0  0  0  0  0  0
   23.7309  -12.1462    1.5878 C   0  0  0  0  0  0  0  0  0  0  0  0
   24.4645  -11.7437    2.7774 N   0  0  0  0  0  0  0  0  0  0  0  0
   24.0765  -12.3975    4.0250 C   0  0  0  0  0  0  0  0  0  0  0  0
   24.9343  -10.4464    2.8385 C   0  0  0  0  0  0  0  0  0  0  0  0
   25.1510   -9.8533    4.0398 N   0  0  0  0  0  0  0  0  0  0  0  0
   25.5508   -8.5655    4.0655 C   0  0  0  0  0  0  0  0  0  0  0  0
   25.7520   -7.7324    3.0296 N   0  0  0  0  0  0  0  0  0  0  0  0
   25.4986   -8.3449    1.8649 C   0  0  0  0  0  0  0  0  0  0  0  0
   25.5650   -7.7441    0.6372 N   0  0  0  0  0  0  0  0  0  0  0  0
   25.2125   -8.6407   -0.3397 C   0  0  0  0  0  0  0  0  0  0  0  0
   24.9243   -9.8389    0.2787 C   0  0  0  0  0  0  0  0  0  0  0  0
   25.1070   -9.6610    1.6817 C   0  0  0  0  0  0  0  0  0  0  0  0
   25.8110   -6.7746    0.5005 H   0  0  0  0  0  0  0  0  0  0  0  0
   26.0648  -14.2154   10.1692 O   0  0  0  0  0  0  0  0  0  0  0  0
   25.3827  -14.1114    9.1518 C   0  0  0  0  0  0  0  0  0  0  0  0
   24.6203  -15.1714    8.7053 N   0  0  0  0  0  0  0  0  0  0  0  0
   24.4918  -15.8846    9.4133 H   0  0  0  0  0  0  0  0  0  0  0  0
   25.3088  -12.7990    8.4678 C   0  0  0  0  0  0  0  0  0  0  0  0
   24.1158  -12.0726    8.5141 C   0  0  0  0  0  0  0  0  0  0  0  0
   24.0595  -10.8036    7.9356 C   0  0  0  0  0  0  0  0  0  0  0  0
   25.1832  -10.2737    7.2970 C   0  0  0  0  0  0  0  0  0  0  0  0
   26.3597  -11.0182    7.2116 C   0  0  0  0  0  0  0  0  0  0  0  0
   26.4207  -12.2877    7.7843 C   0  0  0  0  0  0  0  0  0  0  0  0
 23 24  2  0  0  0
 24 25  1  0  0  0
 25  1  1  0  0  0
  1  2  2  0  0  0
  2  3  1  0  0  0
  3  4  2  0  0  0
  4  5  1  0  0  0
  7  8  1  0  0  0
  8  9  1  0  0  0
  9 10  1  0  0  0
 10 11  1  0  0  0
 11 13  1  0  0  0
 13 14  2  0  0  0
 14 15  1  0  0  0
 15 16  2  0  0  0
 16 17  1  0  0  0
 17 18  1  0  0  0
 18 19  1  0  0  0
 19 20  2  0  0  0
 20 21  1  0  0  0
 13 21  1  0  0  0
 17 21  2  0  0  0
 11 12  1  0  0  0
  7 12  1  0  0  0
  5  6  2  0  0  0
  1  6  1  0  0  0
 24 27  1  0  0  0
 27 28  2  0  0  0
 28 29  1  0  0  0
 29 30  2  0  0  0
 30 31  1  0  0  0
 31 32  2  0  0  0
 27 32  1  0  0  0
 25 26  1  0  0  0
 18 22  1  0  0  0
  7  5  1  0  0  0
M  END
> <minimizedAffinity>
-10.36392

$$$$
mol_CHEMBL585734_13


 32 36  0  0  0  0  0  0  0  0999 V2000
   24.0129  -15.4022    7.4703 C   0  0  0  0  0  0  0  0  0  0  0  0
   23.0655  -16.4023    7.2469 C   0  0  0  0  0  0  0  0  0  0  0  0
   22.5611  -16.6223    5.9686 C   0  0  0  0  0  0  0  0  0  0  0  0
   22.9857  -15.8264    4.9090 C   0  0  0  0  0  0  0  0  0  0  0  0
   23.8892  -14.7693    5.1134 C   0  0  0  0  0  0  0  0  0  0  0  0
   24.3806  -14.5581    6.4134 C   0  0  0  0  0  0  0  0  0  0  0  0
   24.2834  -13.9204    3.9112 C   0  0  0  0  0  0  0  0  0  0  0  0
   23.6447  -14.4842    2.6198 C   0  0  0  0  0  0  0  0  0  0  0  0
   24.0079  -13.6564    1.3836 C   0  0  0  0  0  0  0  0  0  0  0  0
   23.7014  -12.1729    1.5860 C   0  0  0  0  0  0  0  0  0  0  0  0
   24.3952  -11.7522    2.7902 N   0  0  0  0  0  0  0  0  0  0  0  0
   23.9990  -12.4069    4.0319 C   0  0  0  0  0  0  0  0  0  0  0  0
   24.9151  -10.4773    2.8427 C   0  0  0  0  0  0  0  0  0  0  0  0
   25.1825   -9.8962    4.0387 N   0  0  0  0  0  0  0  0  0  0  0  0
   25.6342   -8.6255    4.0554 C   0  0  0  0  0  0  0  0  0  0  0  0
   25.8407   -7.7980    3.0157 N   0  0  0  0  0  0  0  0  0  0  0  0
   25.5333   -8.3972    1.8571 C   0  0  0  0  0  0  0  0  0  0  0  0
   25.5876   -7.7962    0.6287 N   0  0  0  0  0  0  0  0  0  0  0  0
   25.1741   -8.6763   -0.3392 C   0  0  0  0  0  0  0  0  0  0  0  0
   24.8602   -9.8649    0.2850 C   0  0  0  0  0  0  0  0  0  0  0  0
   25.0878   -9.6968    1.6827 C   0  0  0  0  0  0  0  0  0  0  0  0
   25.8650   -6.8360    0.4866 H   0  0  0  0  0  0  0  0  0  0  0  0
   26.0578  -14.2258   10.1873 O   0  0  0  0  0  0  0  0  0  0  0  0
   25.3770  -14.1221    9.1688 C   0  0  0  0  0  0  0  0  0  0  0  0
   24.6140  -15.1825    8.7248 N   0  0  0  0  0  0  0  0  0  0  0  0
   24.4861  -15.8937    9.4351 H   0  0  0  0  0  0  0  0  0  0  0  0
   25.3078  -12.8103    8.4825 C   0  0  0  0  0  0  0  0  0  0  0  0
   24.1177  -12.0791    8.5318 C   0  0  0  0  0  0  0  0  0  0  0  0
   24.0625  -10.8120    7.9489 C   0  0  0  0  0  0  0  0  0  0  0  0
   25.1850  -10.2876    7.3039 C   0  0  0  0  0  0  0  0  0  0  0  0
   26.3584  -11.0367    7.2150 C   0  0  0  0  0  0  0  0  0  0  0  0
   26.4173  -12.3053    7.7903 C   0  0  0  0  0  0  0  0  0  0  0  0
 23 24  2  0  0  0
 24 25  1  0  0  0
 25  1  1  0  0  0
  1  2  2  0  0  0
  2  3  1  0  0  0
  3  4  2  0  0  0
  4  5  1  0  0  0
  7  8  1  0  0  0
  8  9  1  0  0  0
  9 10  1  0  0  0
 10 11  1  0  0  0
 11 13  1  0  0  0
 13 14  2  0  0  0
 14 15  1  0  0  0
 15 16  2  0  0  0
 16 17  1  0  0  0
 17 18  1  0  0  0
 18 19  1  0  0  0
 19 20  2  0  0  0
 20 21  1  0  0  0
 13 21  1  0  0  0
 17 21  2  0  0  0
 11 12  1  0  0  0
  7 12  1  0  0  0
  5  6  2  0  0  0
  1  6  1  0  0  0
 24 27  1  0  0  0
 27 28  2  0  0  0
 28 29  1  0  0  0
 29 30  2  0  0  0
 30 31  1  0  0  0
 31 32  2  0  0  0
 27 32  1  0  0  0
 25 26  1  0  0  0
 18 22  1  0  0  0
  7  5  1  0  0  0
M  END
> <minimizedAffinity>
-10.48269

$$$$
mol_CHEMBL4448573_14


 32 36  0  0  0  0  0  0  0  0999 V2000
   24.1127  -15.3114    7.2843 C   0  0  0  0  0  0  0  0  0  0  0  0
   23.1203  -16.2764    7.1104 C   0  0  0  0  0  0  0  0  0  0  0  0
   22.5109  -16.4405    5.8694 C   0  0  0  0  0  0  0  0  0  0  0  0
   22.8876  -15.6352    4.7974 C   0  0  0  0  0  0  0  0  0  0  0  0
   23.8476  -14.6218    4.9563 C   0  0  0  0  0  0  0  0  0  0  0  0
   24.4281  -14.4514    6.2254 C   0  0  0  0  0  0  0  0  0  0  0  0
   24.2531  -13.8083    3.7334 C   0  0  0  0  0  0  0  0  0  0  0  0
   23.6340  -14.3758    2.4357 C   0  0  0  0  0  0  0  0  0  0  0  0
   24.0452  -13.5641    1.2001 C   0  0  0  0  0  0  0  0  0  0  0  0
   23.7752  -12.0678    1.3770 C   0  0  0  0  0  0  0  0  0  0  0  0
   24.4332  -11.6533    2.6028 N   0  0  0  0  0  0  0  0  0  0  0  0
   23.9737  -12.2940    3.8287 C   0  0  0  0  0  0  0  0  0  0  0  0
   24.9254  -10.3691    2.7009 C   0  0  0  0  0  0  0  0  0  0  0  0
   25.1805   -9.8179    3.9122 N   0  0  0  0  0  0  0  0  0  0  0  0
   25.6440   -8.5514    3.9593 C   0  0  0  0  0  0  0  0  0  0  0  0
   25.8742   -7.7045    2.9391 N   0  0  0  0  0  0  0  0  0  0  0  0
   25.5745   -8.2758    1.7644 C   0  0  0  0  0  0  0  0  0  0  0  0
   25.6588   -7.6559    0.5468 N   0  0  0  0  0  0  0  0  0  0  0  0
   25.2506   -8.5145   -0.4429 C   0  0  0  0  0  0  0  0  0  0  0  0
   24.9101   -9.7086    0.1559 C   0  0  0  0  0  0  0  0  0  0  0  0
   25.1158   -9.5657    1.5598 C   0  0  0  0  0  0  0  0  0  0  0  0
   25.9561   -6.6991    0.4240 H   0  0  0  0  0  0  0  0  0  0  0  0
   26.3749  -14.2376    9.8659 O   0  0  0  0  0  0  0  0  0  0  0  0
   25.5986  -14.0987    8.9224 C   0  0  0  0  0  0  0  0  0  0  0  0
   24.8296  -15.1573    8.4855 N   0  0  0  0  0  0  0  0  0  0  0  0
   24.7796  -15.9097    9.1621 H   0  0  0  0  0  0  0  0  0  0  0  0
   25.4202  -12.7510    8.3305 C   0  0  0  0  0  0  0  0  0  0  0  0
   24.1871  -12.1078    8.4668 C   0  0  0  0  0  0  0  0  0  0  0  0
   24.0252  -10.8140    7.9686 C   0  0  0  0  0  0  0  0  0  0  0  0
   25.0845  -10.1742    7.3212 C   0  0  0  0  0  0  0  0  0  0  0  0
   26.3009  -10.8333    7.1444 C   0  0  0  0  0  0  0  0  0  0  0  0
   26.4658  -12.1283    7.6340 C   0  0  0  0  0  0  0  0  0  0  0  0
 23 24  2  0  0  0
 24 25  1  0  0  0
 25  1  1  0  0  0
  1  2  2  0  0  0
  2  3  1  0  0  0
  3  4  2  0  0  0
  4  5  1  0  0  0
  7  8  1  0  0  0
  8  9  1  0  0  0
  9 10  1  0  0  0
 10 11  1  0  0  0
 11 13  1  0  0  0
 13 14  2  0  0  0
 14 15  1  0  0  0
 15 16  2  0  0  0
 16 17  1  0  0  0
 17 18  1  0  0  0
 18 19  1  0  0  0
 19 20  2  0  0  0
 20 21  1  0  0  0
 13 21  1  0  0  0
 17 21  2  0  0  0
 11 12  1  0  0  0
  7 12  1  0  0  0
  5  6  2  0  0  0
  1  6  1  0  0  0
 24 27  1  0  0  0
 27 28  2  0  0  0
 28 29  1  0  0  0
 29 30  2  0  0  0
 30 31  1  0  0  0
 31 32  2  0  0  0
 27 32  1  0  0  0
 25 26  1  0  0  0
 18 22  1  0  0  0
  7  5  1  0  0  0
M  END
> <minimizedAffinity>
-10.33381

$$$$
