mol_CHEMBL3715062_0


 32 36  0  0  0  0  0  0  0  0999 V2000
   -6.3640   -3.2638   11.4064 C   0  0  0  0  0  0  0  0  0  0  0  0
   -6.5150   -2.6757   12.6656 C   0  0  0  0  0  0  0  0  0  0  0  0
   -5.4113   -2.5016   13.4999 C   0  0  0  0  0  0  0  0  0  0  0  0
   -4.1435   -2.8875   13.0685 C   0  0  0  0  0  0  0  0  0  0  0  0
   -3.9592   -3.4576   11.7992 C   0  0  0  0  0  0  0  0  0  0  0  0
   -5.0884   -3.6595   10.9870 C   0  0  0  0  0  0  0  0  0  0  0  0
   -2.5527   -3.8454   11.3679 C   0  0  0  0  0  0  0  0  0  0  0  0
   -2.5926   -4.9282   10.2701 C   0  0  0  0  0  0  0  0  0  0  0  0
   -1.1828   -5.3495    9.8402 C   0  0  0  0  0  0  0  0  0  0  0  0
   -0.3129   -4.1490    9.4581 C   0  0  0  0  0  0  0  0  0  0  0  0
   -0.3362   -3.2120   10.5709 N   0  0  0  0  0  0  0  0  0  0  0  0
   -1.6482   -2.6735   10.9255 C   0  0  0  0  0  0  0  0  0  0  0  0
    0.7951   -2.4698   10.8411 C   0  0  0  0  0  0  0  0  0  0  0  0
    1.6501   -2.1439    9.8369 N   0  0  0  0  0  0  0  0  0  0  0  0
    2.7757   -1.4632   10.1320 C   0  0  0  0  0  0  0  0  0  0  0  0
    3.2189   -1.0646   11.3367 N   0  0  0  0  0  0  0  0  0  0  0  0
    2.3697   -1.4339   12.3052 C   0  0  0  0  0  0  0  0  0  0  0  0
    2.5723   -1.2146   13.6408 N   0  0  0  0  0  0  0  0  0  0  0  0
    1.5357   -1.7477   14.3632 C   0  0  0  0  0  0  0  0  0  0  0  0
    0.6512   -2.3101   13.4675 C   0  0  0  0  0  0  0  0  0  0  0  0
    1.1695   -2.1099   12.1531 C   0  0  0  0  0  0  0  0  0  0  0  0
    3.3877   -0.7518   14.0143 H   0  0  0  0  0  0  0  0  0  0  0  0
   -7.6638   -5.6963   10.2708 O   0  0  0  0  0  0  0  0  0  0  0  0
   -8.0155   -4.5452   10.0410 C   0  0  0  0  0  0  0  0  0  0  0  0
   -7.5168   -3.3868   10.6038 N   0  0  0  0  0  0  0  0  0  0  0  0
   -8.0585   -2.5427   10.4641 H   0  0  0  0  0  0  0  0  0  0  0  0
   -9.1333   -4.3250    9.0935 C   0  0  0  0  0  0  0  0  0  0  0  0
   -9.1745   -5.0151    7.8759 C   0  0  0  0  0  0  0  0  0  0  0  0
  -10.2537   -4.8253    7.0119 C   0  0  0  0  0  0  0  0  0  0  0  0
  -11.2812   -3.9468    7.3610 C   0  0  0  0  0  0  0  0  0  0  0  0
  -11.2393   -3.2625    8.5772 C   0  0  0  0  0  0  0  0  0  0  0  0
  -10.1692   -3.4574    9.4510 C   0  0  0  0  0  0  0  0  0  0  0  0
 23 24  2  0  0  0
 24 25  1  0  0  0
 25  1  1  0  0  0
  1  2  2  0  0  0
  2  3  1  0  0  0
  3  4  2  0  0  0
  4  5  1  0  0  0
  7  8  1  0  0  0
  8  9  1  0  0  0
  9 10  1  0  0  0
 10 11  1  0  0  0
 11 13  1  0  0  0
 13 14  2  0  0  0
 14 15  1  0  0  0
 15 16  2  0  0  0
 16 17  1  0  0  0
 17 18  1  0  0  0
 18 19  1  0  0  0
 19 20  2  0  0  0
 20 21  1  0  0  0
 13 21  1  0  0  0
 17 21  2  0  0  0
 11 12  1  0  0  0
  7 12  1  0  0  0
  5  6  2  0  0  0
  1  6  1  0  0  0
 24 27  1  0  0  0
 27 28  2  0  0  0
 28 29  1  0  0  0
 29 30  2  0  0  0
 30 31  1  0  0  0
 31 32  2  0  0  0
 27 32  1  0  0  0
  7  5  1  0  0  0
 25 26  1  0  0  0
 18 22  1  0  0  0
M  END
> <minimizedAffinity>
-5.28392

$$$$
mol_CHEMBL78377_1


 32 36  0  0  0  0  0  0  0  0999 V2000
   -3.7763   -5.1914   11.2037 C   0  0  0  0  0  0  0  0  0  0  0  0
   -3.7535   -5.9827   10.0542 C   0  0  0  0  0  0  0  0  0  0  0  0
   -2.6930   -5.8954    9.1575 C   0  0  0  0  0  0  0  0  0  0  0  0
   -1.6644   -4.9877    9.3871 C   0  0  0  0  0  0  0  0  0  0  0  0
   -1.6967   -4.1207   10.4931 C   0  0  0  0  0  0  0  0  0  0  0  0
   -2.7724   -4.2297   11.3914 C   0  0  0  0  0  0  0  0  0  0  0  0
   -0.5772   -3.0953   10.6279 C   0  0  0  0  0  0  0  0  0  0  0  0
   -1.0433   -1.9355   11.5419 C   0  0  0  0  0  0  0  0  0  0  0  0
    0.0418   -0.8758   11.7427 C   0  0  0  0  0  0  0  0  0  0  0  0
    1.3492   -1.5011   12.2238 C   0  0  0  0  0  0  0  0  0  0  0  0
    1.7145   -2.5166   11.2535 N   0  0  0  0  0  0  0  0  0  0  0  0
    0.7943   -3.6361   11.0929 C   0  0  0  0  0  0  0  0  0  0  0  0
    3.0428   -2.6631   10.9253 C   0  0  0  0  0  0  0  0  0  0  0  0
    3.8859   -3.3083   11.7698 N   0  0  0  0  0  0  0  0  0  0  0  0
    5.1976   -3.3616   11.4617 C   0  0  0  0  0  0  0  0  0  0  0  0
    5.8308   -2.8164   10.4084 N   0  0  0  0  0  0  0  0  0  0  0  0
    4.9698   -2.1617    9.6172 C   0  0  0  0  0  0  0  0  0  0  0  0
    5.3210   -1.4538    8.4998 N   0  0  0  0  0  0  0  0  0  0  0  0
    4.2070   -0.8751    7.9461 C   0  0  0  0  0  0  0  0  0  0  0  0
    3.1234   -1.2309    8.7210 C   0  0  0  0  0  0  0  0  0  0  0  0
    3.5997   -2.0493    9.7869 C   0  0  0  0  0  0  0  0  0  0  0  0
    6.2712   -1.3593    8.1724 H   0  0  0  0  0  0  0  0  0  0  0  0
   -6.3462   -4.5306   13.6385 O   0  0  0  0  0  0  0  0  0  0  0  0
   -5.7378   -4.3757   12.5806 C   0  0  0  0  0  0  0  0  0  0  0  0
   -4.7823   -5.2893   12.1851 N   0  0  0  0  0  0  0  0  0  0  0  0
   -4.8378   -6.1551   12.7087 H   0  0  0  0  0  0  0  0  0  0  0  0
   -6.1138   -3.2466   11.6985 C   0  0  0  0  0  0  0  0  0  0  0  0
   -7.0130   -3.4732   10.6523 C   0  0  0  0  0  0  0  0  0  0  0  0
   -7.4361   -2.4029    9.8627 C   0  0  0  0  0  0  0  0  0  0  0  0
   -6.9486   -1.1169   10.1063 C   0  0  0  0  0  0  0  0  0  0  0  0
   -6.0152   -0.8994   11.1201 C   0  0  0  0  0  0  0  0  0  0  0  0
   -5.5831   -1.9662   11.9070 C   0  0  0  0  0  0  0  0  0  0  0  0
 23 24  2  0  0  0
 24 25  1  0  0  0
 25  1  1  0  0  0
  1  2  2  0  0  0
  2  3  1  0  0  0
  3  4  2  0  0  0
  4  5  1  0  0  0
  7  8  1  0  0  0
  8  9  1  0  0  0
  9 10  1  0  0  0
 10 11  1  0  0  0
 11 13  1  0  0  0
 13 14  2  0  0  0
 14 15  1  0  0  0
 15 16  2  0  0  0
 16 17  1  0  0  0
 17 18  1  0  0  0
 18 19  1  0  0  0
 19 20  2  0  0  0
 20 21  1  0  0  0
 13 21  1  0  0  0
 17 21  2  0  0  0
 11 12  1  0  0  0
  7 12  1  0  0  0
  5  6  2  0  0  0
  1  6  1  0  0  0
 24 27  1  0  0  0
 27 28  2  0  0  0
 28 29  1  0  0  0
 29 30  2  0  0  0
 30 31  1  0  0  0
 31 32  2  0  0  0
 27 32  1  0  0  0
 25 26  1  0  0  0
 18 22  1  0  0  0
  7  5  1  0  0  0
M  END
> <minimizedAffinity>
-5.03729

$$$$
mol_CHEMBL4087971_2


 32 36  0  0  0  0  0  0  0  0999 V2000
   -7.9074   -3.2269   11.0884 C   0  0  0  0  0  0  0  0  0  0  0  0
   -8.2100   -2.0065   10.4821 C   0  0  0  0  0  0  0  0  0  0  0  0
   -7.2805   -0.9710   10.4764 C   0  0  0  0  0  0  0  0  0  0  0  0
   -6.0519   -1.1397   11.1060 C   0  0  0  0  0  0  0  0  0  0  0  0
   -5.7445   -2.3302   11.7875 C   0  0  0  0  0  0  0  0  0  0  0  0
   -6.6957   -3.3649   11.7811 C   0  0  0  0  0  0  0  0  0  0  0  0
   -4.4074   -2.4094   12.5130 C   0  0  0  0  0  0  0  0  0  0  0  0
   -4.5297   -3.3523   13.7338 C   0  0  0  0  0  0  0  0  0  0  0  0
   -3.2142   -3.4741   14.5058 C   0  0  0  0  0  0  0  0  0  0  0  0
   -2.0592   -3.8673   13.5864 C   0  0  0  0  0  0  0  0  0  0  0  0
   -2.0111   -2.8882   12.5153 N   0  0  0  0  0  0  0  0  0  0  0  0
   -3.1837   -2.7967   11.6529 C   0  0  0  0  0  0  0  0  0  0  0  0
   -0.7831   -2.4512   12.0738 C   0  0  0  0  0  0  0  0  0  0  0  0
   -0.1319   -1.4696   12.7483 N   0  0  0  0  0  0  0  0  0  0  0  0
    1.0327   -1.0025   12.2553 C   0  0  0  0  0  0  0  0  0  0  0  0
    1.6616   -1.3592   11.1224 N   0  0  0  0  0  0  0  0  0  0  0  0
    0.9731   -2.3049   10.4686 C   0  0  0  0  0  0  0  0  0  0  0  0
    1.3301   -2.8281    9.2556 N   0  0  0  0  0  0  0  0  0  0  0  0
    0.3917   -3.7422    8.8487 C   0  0  0  0  0  0  0  0  0  0  0  0
   -0.5765   -3.8094    9.8282 C   0  0  0  0  0  0  0  0  0  0  0  0
   -0.2143   -2.8992   10.8649 C   0  0  0  0  0  0  0  0  0  0  0  0
    2.1502   -2.5413    8.7419 H   0  0  0  0  0  0  0  0  0  0  0  0
   -9.9021   -6.0652   10.1264 O   0  0  0  0  0  0  0  0  0  0  0  0
   -8.9021   -5.3498   10.1375 C   0  0  0  0  0  0  0  0  0  0  0  0
   -8.7796   -4.3330   11.0628 N   0  0  0  0  0  0  0  0  0  0  0  0
   -9.4393   -4.4236   11.8263 H   0  0  0  0  0  0  0  0  0  0  0  0
   -7.7909   -5.6580    9.2070 C   0  0  0  0  0  0  0  0  0  0  0  0
   -7.8014   -5.0975    7.9263 C   0  0  0  0  0  0  0  0  0  0  0  0
   -6.7235   -5.3195    7.0678 C   0  0  0  0  0  0  0  0  0  0  0  0
   -5.6506   -6.1130    7.4805 C   0  0  0  0  0  0  0  0  0  0  0  0
   -5.6623   -6.7102    8.7411 C   0  0  0  0  0  0  0  0  0  0  0  0
   -6.7395   -6.4972    9.6005 C   0  0  0  0  0  0  0  0  0  0  0  0
 23 24  2  0  0  0
 24 25  1  0  0  0
 25  1  1  0  0  0
  1  2  2  0  0  0
  2  3  1  0  0  0
  3  4  2  0  0  0
  4  5  1  0  0  0
  7  8  1  0  0  0
  8  9  1  0  0  0
  9 10  1  0  0  0
 10 11  1  0  0  0
 11 13  1  0  0  0
 13 14  2  0  0  0
 14 15  1  0  0  0
 15 16  2  0  0  0
 16 17  1  0  0  0
 17 18  1  0  0  0
 18 19  1  0  0  0
 19 20  2  0  0  0
 20 21  1  0  0  0
 13 21  1  0  0  0
 17 21  2  0  0  0
 11 12  1  0  0  0
  7 12  1  0  0  0
  5  6  2  0  0  0
  1  6  1  0  0  0
 24 27  1  0  0  0
 27 28  2  0  0  0
 28 29  1  0  0  0
 29 30  2  0  0  0
 30 31  1  0  0  0
 31 32  2  0  0  0
 27 32  1  0  0  0
 25 26  1  0  0  0
 18 22  1  0  0  0
  7  5  1  0  0  0
M  END
> <minimizedAffinity>
-4.89449

$$$$
mol_CHEMBL3715974_3


 32 36  0  0  0  0  0  0  0  0999 V2000
   -3.6634   -4.9968   11.3243 C   0  0  0  0  0  0  0  0  0  0  0  0
   -3.6936   -5.8260   10.2044 C   0  0  0  0  0  0  0  0  0  0  0  0
   -2.6842   -5.7478    9.2456 C   0  0  0  0  0  0  0  0  0  0  0  0
   -1.6432   -4.8330    9.3970 C   0  0  0  0  0  0  0  0  0  0  0  0
   -1.6120   -3.9542   10.4905 C   0  0  0  0  0  0  0  0  0  0  0  0
   -2.6529   -4.0345   11.4328 C   0  0  0  0  0  0  0  0  0  0  0  0
   -0.4384   -2.9912   10.6300 C   0  0  0  0  0  0  0  0  0  0  0  0
   -0.6550   -1.9914   11.7888 C   0  0  0  0  0  0  0  0  0  0  0  0
    0.5466   -1.0567   11.9909 C   0  0  0  0  0  0  0  0  0  0  0  0
    1.8680   -1.8237   12.0919 C   0  0  0  0  0  0  0  0  0  0  0  0
    1.9670   -2.6560   10.9067 N   0  0  0  0  0  0  0  0  0  0  0  0
    0.9359   -3.6766   10.7691 C   0  0  0  0  0  0  0  0  0  0  0  0
    3.2152   -3.0023   10.4294 C   0  0  0  0  0  0  0  0  0  0  0  0
    3.9021   -4.0423   10.9583 N   0  0  0  0  0  0  0  0  0  0  0  0
    5.1078   -4.3470   10.4323 C   0  0  0  0  0  0  0  0  0  0  0  0
    5.7694   -3.7303    9.4344 N   0  0  0  0  0  0  0  0  0  0  0  0
    5.0687   -2.6883    8.9659 C   0  0  0  0  0  0  0  0  0  0  0  0
    5.4840   -1.8410    7.9741 N   0  0  0  0  0  0  0  0  0  0  0  0
    4.5328   -0.8753    7.7563 C   0  0  0  0  0  0  0  0  0  0  0  0
    3.4867   -1.1186    8.6201 C   0  0  0  0  0  0  0  0  0  0  0  0
    3.8202   -2.2705    9.3906 C   0  0  0  0  0  0  0  0  0  0  0  0
    6.3710   -1.9241    7.4998 H   0  0  0  0  0  0  0  0  0  0  0  0
   -6.1326   -4.2646   13.8378 O   0  0  0  0  0  0  0  0  0  0  0  0
   -5.5870   -4.1629   12.7401 C   0  0  0  0  0  0  0  0  0  0  0  0
   -4.6066   -5.0547   12.3668 N   0  0  0  0  0  0  0  0  0  0  0  0
   -4.5956   -5.8785   12.9568 H   0  0  0  0  0  0  0  0  0  0  0  0
   -6.0727   -3.1348   11.7930 C   0  0  0  0  0  0  0  0  0  0  0  0
   -7.0661   -3.4815   10.8735 C   0  0  0  0  0  0  0  0  0  0  0  0
   -7.5694   -2.5130   10.0046 C   0  0  0  0  0  0  0  0  0  0  0  0
   -7.0683   -1.2100   10.0424 C   0  0  0  0  0  0  0  0  0  0  0  0
   -6.0456   -0.8752   10.9302 C   0  0  0  0  0  0  0  0  0  0  0  0
   -5.5347   -1.8406   11.7967 C   0  0  0  0  0  0  0  0  0  0  0  0
 23 24  2  0  0  0
 24 25  1  0  0  0
 25  1  1  0  0  0
  1  2  2  0  0  0
  2  3  1  0  0  0
  3  4  2  0  0  0
  4  5  1  0  0  0
  7  8  1  0  0  0
  8  9  1  0  0  0
  9 10  1  0  0  0
 10 11  1  0  0  0
 11 13  1  0  0  0
 13 14  2  0  0  0
 14 15  1  0  0  0
 15 16  2  0  0  0
 16 17  1  0  0  0
 17 18  1  0  0  0
 18 19  1  0  0  0
 19 20  2  0  0  0
 20 21  1  0  0  0
 13 21  1  0  0  0
 17 21  2  0  0  0
 11 12  1  0  0  0
  7 12  1  0  0  0
  5  6  2  0  0  0
  1  6  1  0  0  0
 24 27  1  0  0  0
 27 28  2  0  0  0
 28 29  1  0  0  0
 29 30  2  0  0  0
 30 31  1  0  0  0
 31 32  2  0  0  0
 27 32  1  0  0  0
 25 26  1  0  0  0
 18 22  1  0  0  0
  7  5  1  0  0  0
M  END
> <minimizedAffinity>
-4.88186

$$$$
mol_CHEMBL4069969_4


 32 36  0  0  0  0  0  0  0  0999 V2000
   -3.8095   -5.0300   11.4622 C   0  0  0  0  0  0  0  0  0  0  0  0
   -3.7260   -5.9066   10.3796 C   0  0  0  0  0  0  0  0  0  0  0  0
   -2.6721   -5.8103    9.4755 C   0  0  0  0  0  0  0  0  0  0  0  0
   -1.7059   -4.8219    9.6381 C   0  0  0  0  0  0  0  0  0  0  0  0
   -1.7969   -3.8846   10.6814 C   0  0  0  0  0  0  0  0  0  0  0  0
   -2.8745   -3.9925   11.5776 C   0  0  0  0  0  0  0  0  0  0  0  0
   -0.7147   -2.8166   10.7865 C   0  0  0  0  0  0  0  0  0  0  0  0
   -0.8147   -2.0704   12.1382 C   0  0  0  0  0  0  0  0  0  0  0  0
    0.2681   -0.9974   12.2928 C   0  0  0  0  0  0  0  0  0  0  0  0
    1.6658   -1.5613   12.0377 C   0  0  0  0  0  0  0  0  0  0  0  0
    1.6429   -2.1787   10.7243 N   0  0  0  0  0  0  0  0  0  0  0  0
    0.7320   -3.3036   10.5507 C   0  0  0  0  0  0  0  0  0  0  0  0
    2.7717   -2.1106    9.9378 C   0  0  0  0  0  0  0  0  0  0  0  0
    3.2427   -0.9111    9.5162 N   0  0  0  0  0  0  0  0  0  0  0  0
    4.3194   -0.8881    8.7040 C   0  0  0  0  0  0  0  0  0  0  0  0
    5.0101   -1.9269    8.2009 N   0  0  0  0  0  0  0  0  0  0  0  0
    4.4920   -3.0922    8.6127 C   0  0  0  0  0  0  0  0  0  0  0  0
    4.9417   -4.3269    8.2296 N   0  0  0  0  0  0  0  0  0  0  0  0
    4.1686   -5.3036    8.8051 C   0  0  0  0  0  0  0  0  0  0  0  0
    3.2146   -4.6779    9.5790 C   0  0  0  0  0  0  0  0  0  0  0  0
    3.4141   -3.2707    9.4636 C   0  0  0  0  0  0  0  0  0  0  0  0
    5.7114   -4.4700    7.5926 H   0  0  0  0  0  0  0  0  0  0  0  0
   -6.3988   -4.3452   13.8648 O   0  0  0  0  0  0  0  0  0  0  0  0
   -5.7995   -4.2303   12.7972 C   0  0  0  0  0  0  0  0  0  0  0  0
   -4.8079   -5.1245   12.4507 N   0  0  0  0  0  0  0  0  0  0  0  0
   -4.8315   -5.9678   13.0117 H   0  0  0  0  0  0  0  0  0  0  0  0
   -6.2286   -3.1805   11.8431 C   0  0  0  0  0  0  0  0  0  0  0  0
   -5.8201   -1.8609   12.0557 C   0  0  0  0  0  0  0  0  0  0  0  0
   -6.1620   -0.8755   11.1282 C   0  0  0  0  0  0  0  0  0  0  0  0
   -6.9242   -1.2044   10.0048 C   0  0  0  0  0  0  0  0  0  0  0  0
   -7.3703   -2.5126    9.8166 C   0  0  0  0  0  0  0  0  0  0  0  0
   -7.0367   -3.4997   10.7430 C   0  0  0  0  0  0  0  0  0  0  0  0
 23 24  2  0  0  0
 24 25  1  0  0  0
 25  1  1  0  0  0
  1  2  2  0  0  0
  2  3  1  0  0  0
  3  4  2  0  0  0
  4  5  1  0  0  0
  7  8  1  0  0  0
  8  9  1  0  0  0
  9 10  1  0  0  0
 10 11  1  0  0  0
 11 13  1  0  0  0
 13 14  2  0  0  0
 14 15  1  0  0  0
 15 16  2  0  0  0
 16 17  1  0  0  0
 17 18  1  0  0  0
 18 19  1  0  0  0
 19 20  2  0  0  0
 20 21  1  0  0  0
 13 21  1  0  0  0
 17 21  2  0  0  0
 11 12  1  0  0  0
  7 12  1  0  0  0
  5  6  2  0  0  0
  1  6  1  0  0  0
 24 27  1  0  0  0
 27 28  2  0  0  0
 28 29  1  0  0  0
 29 30  2  0  0  0
 30 31  1  0  0  0
 31 32  2  0  0  0
 27 32  1  0  0  0
 25 26  1  0  0  0
 18 22  1  0  0  0
  7  5  1  0  0  0
M  END
> <minimizedAffinity>
-5.33687

$$$$
mol_CHEMBL3719354_5


 32 36  0  0  0  0  0  0  0  0999 V2000
   -3.6621   -4.9653   11.5169 C   0  0  0  0  0  0  0  0  0  0  0  0
   -3.6540   -5.7964   10.3949 C   0  0  0  0  0  0  0  0  0  0  0  0
   -2.6258   -5.7139    9.4619 C   0  0  0  0  0  0  0  0  0  0  0  0
   -1.6113   -4.7783    9.6322 C   0  0  0  0  0  0  0  0  0  0  0  0
   -1.6259   -3.8814   10.7150 C   0  0  0  0  0  0  0  0  0  0  0  0
   -2.6758   -3.9762   11.6446 C   0  0  0  0  0  0  0  0  0  0  0  0
   -0.5067   -2.8524   10.7956 C   0  0  0  0  0  0  0  0  0  0  0  0
   -0.7029   -1.9545   12.0390 C   0  0  0  0  0  0  0  0  0  0  0  0
    0.3775   -0.8751   12.1348 C   0  0  0  0  0  0  0  0  0  0  0  0
    1.7805   -1.4810   12.0913 C   0  0  0  0  0  0  0  0  0  0  0  0
    1.8729   -2.2940   10.8894 N   0  0  0  0  0  0  0  0  0  0  0  0
    0.9357   -3.4024   10.7617 C   0  0  0  0  0  0  0  0  0  0  0  0
    2.9274   -2.0979   10.0289 C   0  0  0  0  0  0  0  0  0  0  0  0
    2.8756   -1.0523    9.1603 N   0  0  0  0  0  0  0  0  0  0  0  0
    3.8776   -0.8753    8.2785 C   0  0  0  0  0  0  0  0  0  0  0  0
    4.9671   -1.6368    8.0976 N   0  0  0  0  0  0  0  0  0  0  0  0
    4.9736   -2.6747    8.9447 C   0  0  0  0  0  0  0  0  0  0  0  0
    5.9326   -3.6499    8.9578 N   0  0  0  0  0  0  0  0  0  0  0  0
    5.6306   -4.5857    9.9121 C   0  0  0  0  0  0  0  0  0  0  0  0
    4.4604   -4.1905   10.5258 C   0  0  0  0  0  0  0  0  0  0  0  0
    4.0327   -2.9700    9.9210 C   0  0  0  0  0  0  0  0  0  0  0  0
    6.7190   -3.6690    8.3250 H   0  0  0  0  0  0  0  0  0  0  0  0
   -6.2178   -4.2711   13.9536 O   0  0  0  0  0  0  0  0  0  0  0  0
   -5.6459   -4.1784   12.8689 C   0  0  0  0  0  0  0  0  0  0  0  0
   -4.6394   -5.0598   12.5273 N   0  0  0  0  0  0  0  0  0  0  0  0
   -4.6271   -5.8853   13.1145 H   0  0  0  0  0  0  0  0  0  0  0  0
   -6.1208   -3.1703   11.8911 C   0  0  0  0  0  0  0  0  0  0  0  0
   -5.6573   -1.8551   11.9872 C   0  0  0  0  0  0  0  0  0  0  0  0
   -6.0369   -0.9186   11.0239 C   0  0  0  0  0  0  0  0  0  0  0  0
   -6.8908   -1.2903    9.9829 C   0  0  0  0  0  0  0  0  0  0  0  0
   -7.3902   -2.5909    9.9139 C   0  0  0  0  0  0  0  0  0  0  0  0
   -7.0186   -3.5291   10.8759 C   0  0  0  0  0  0  0  0  0  0  0  0
 23 24  2  0  0  0
 24 25  1  0  0  0
 25  1  1  0  0  0
  1  2  2  0  0  0
  2  3  1  0  0  0
  3  4  2  0  0  0
  4  5  1  0  0  0
  7  8  1  0  0  0
  8  9  1  0  0  0
  9 10  1  0  0  0
 10 11  1  0  0  0
 11 13  1  0  0  0
 13 14  2  0  0  0
 14 15  1  0  0  0
 15 16  2  0  0  0
 16 17  1  0  0  0
 17 18  1  0  0  0
 18 19  1  0  0  0
 19 20  2  0  0  0
 20 21  1  0  0  0
 13 21  1  0  0  0
 17 21  2  0  0  0
 11 12  1  0  0  0
  7 12  1  0  0  0
  5  6  2  0  0  0
  1  6  1  0  0  0
 24 27  1  0  0  0
 27 28  2  0  0  0
 28 29  1  0  0  0
 29 30  2  0  0  0
 30 31  1  0  0  0
 31 32  2  0  0  0
 27 32  1  0  0  0
 25 26  1  0  0  0
 18 22  1  0  0  0
  7  5  1  0  0  0
M  END
> <minimizedAffinity>
-5.00356

$$$$
mol_CHEMBL4545883_6


 32 36  0  0  0  0  0  0  0  0999 V2000
   -3.4857   -5.0238   11.1728 C   0  0  0  0  0  0  0  0  0  0  0  0
   -3.4027   -5.7787   10.0019 C   0  0  0  0  0  0  0  0  0  0  0  0
   -2.3466   -5.5930    9.1149 C   0  0  0  0  0  0  0  0  0  0  0  0
   -1.3843   -4.6234    9.3768 C   0  0  0  0  0  0  0  0  0  0  0  0
   -1.4813   -3.7930   10.5068 C   0  0  0  0  0  0  0  0  0  0  0  0
   -2.5512   -4.0013   11.3944 C   0  0  0  0  0  0  0  0  0  0  0  0
   -0.4353   -2.6978   10.6781 C   0  0  0  0  0  0  0  0  0  0  0  0
   -0.6345   -1.9990   12.0453 C   0  0  0  0  0  0  0  0  0  0  0  0
    0.3978   -0.8977   12.2952 C   0  0  0  0  0  0  0  0  0  0  0  0
    1.8222   -1.4173   12.1139 C   0  0  0  0  0  0  0  0  0  0  0  0
    1.9005   -1.9827   10.7795 N   0  0  0  0  0  0  0  0  0  0  0  0
    1.0393   -3.1249   10.4964 C   0  0  0  0  0  0  0  0  0  0  0  0
    3.0532   -1.7915   10.0523 C   0  0  0  0  0  0  0  0  0  0  0  0
    3.0466   -0.9767    8.9677 N   0  0  0  0  0  0  0  0  0  0  0  0
    4.1679   -0.8751    8.2256 C   0  0  0  0  0  0  0  0  0  0  0  0
    5.3381   -1.5167    8.3887 N   0  0  0  0  0  0  0  0  0  0  0  0
    5.2932   -2.3348    9.4491 C   0  0  0  0  0  0  0  0  0  0  0  0
    6.3092   -3.1656    9.8368 N   0  0  0  0  0  0  0  0  0  0  0  0
    5.9229   -3.8932   10.9340 C   0  0  0  0  0  0  0  0  0  0  0  0
    4.6386   -3.5096   11.2574 C   0  0  0  0  0  0  0  0  0  0  0  0
    4.2297   -2.5183   10.3177 C   0  0  0  0  0  0  0  0  0  0  0  0
    7.1902   -3.2379    9.3494 H   0  0  0  0  0  0  0  0  0  0  0  0
   -6.1374   -4.6132   13.5745 O   0  0  0  0  0  0  0  0  0  0  0  0
   -5.5363   -4.4042   12.5218 C   0  0  0  0  0  0  0  0  0  0  0  0
   -4.4880   -5.2178   12.1437 N   0  0  0  0  0  0  0  0  0  0  0  0
   -4.4605   -6.0810   12.6737 H   0  0  0  0  0  0  0  0  0  0  0  0
   -6.0165   -3.3259   11.6268 C   0  0  0  0  0  0  0  0  0  0  0  0
   -6.8690   -3.6521   10.5679 C   0  0  0  0  0  0  0  0  0  0  0  0
   -7.3901   -2.6369    9.7642 C   0  0  0  0  0  0  0  0  0  0  0  0
   -7.0459   -1.3051   10.0067 C   0  0  0  0  0  0  0  0  0  0  0  0
   -6.1582   -0.9844   11.0338 C   0  0  0  0  0  0  0  0  0  0  0  0
   -5.6285   -1.9953   11.8351 C   0  0  0  0  0  0  0  0  0  0  0  0
 23 24  2  0  0  0
 24 25  1  0  0  0
 25  1  1  0  0  0
  1  2  2  0  0  0
  2  3  1  0  0  0
  3  4  2  0  0  0
  4  5  1  0  0  0
  7  8  1  0  0  0
  8  9  1  0  0  0
  9 10  1  0  0  0
 10 11  1  0  0  0
 11 13  1  0  0  0
 13 14  2  0  0  0
 14 15  1  0  0  0
 15 16  2  0  0  0
 16 17  1  0  0  0
 17 18  1  0  0  0
 18 19  1  0  0  0
 19 20  2  0  0  0
 20 21  1  0  0  0
 13 21  1  0  0  0
 17 21  2  0  0  0
 11 12  1  0  0  0
  7 12  1  0  0  0
  5  6  2  0  0  0
  1  6  1  0  0  0
 24 27  1  0  0  0
 27 28  2  0  0  0
 28 29  1  0  0  0
 29 30  2  0  0  0
 30 31  1  0  0  0
 31 32  2  0  0  0
 27 32  1  0  0  0
 25 26  1  0  0  0
 18 22  1  0  0  0
  7  5  1  0  0  0
M  END
> <minimizedAffinity>
-4.98923

$$$$
mol_CHEMBL4083165_7


 32 36  0  0  0  0  0  0  0  0999 V2000
   -3.6635   -5.0987   11.3237 C   0  0  0  0  0  0  0  0  0  0  0  0
   -3.5480   -5.9504   10.2239 C   0  0  0  0  0  0  0  0  0  0  0  0
   -2.4616   -5.8458    9.3606 C   0  0  0  0  0  0  0  0  0  0  0  0
   -1.5001   -4.8634    9.5726 C   0  0  0  0  0  0  0  0  0  0  0  0
   -1.6268   -3.9410   10.6257 C   0  0  0  0  0  0  0  0  0  0  0  0
   -2.7278   -4.0670   11.4904 C   0  0  0  0  0  0  0  0  0  0  0  0
   -0.5764   -2.8431   10.7410 C   0  0  0  0  0  0  0  0  0  0  0  0
   -0.7235   -2.1241   12.1041 C   0  0  0  0  0  0  0  0  0  0  0  0
    0.3141   -1.0159   12.2941 C   0  0  0  0  0  0  0  0  0  0  0  0
    1.7324   -1.5336   12.0641 C   0  0  0  0  0  0  0  0  0  0  0  0
    1.7598   -2.1230   10.7379 N   0  0  0  0  0  0  0  0  0  0  0  0
    0.8906   -3.2715   10.5095 C   0  0  0  0  0  0  0  0  0  0  0  0
    2.8809   -1.9400    9.9607 C   0  0  0  0  0  0  0  0  0  0  0  0
    2.8934   -0.9819    9.0001 N   0  0  0  0  0  0  0  0  0  0  0  0
    3.9729   -0.8801    8.1985 C   0  0  0  0  0  0  0  0  0  0  0  0
    5.0792   -1.6437    8.1869 N   0  0  0  0  0  0  0  0  0  0  0  0
    5.0142   -2.5969    9.1269 C   0  0  0  0  0  0  0  0  0  0  0  0
    5.9620   -3.5644    9.3224 N   0  0  0  0  0  0  0  0  0  0  0  0
    5.5698   -4.4023   10.3356 C   0  0  0  0  0  0  0  0  0  0  0  0
    4.3524   -3.9522   10.8010 C   0  0  0  0  0  0  0  0  0  0  0  0
    3.9911   -2.8032   10.0377 C   0  0  0  0  0  0  0  0  0  0  0  0
    6.8006   -3.6472    8.7668 H   0  0  0  0  0  0  0  0  0  0  0  0
   -6.3298   -4.4558   13.6570 O   0  0  0  0  0  0  0  0  0  0  0  0
   -5.6913   -4.3075   12.6162 C   0  0  0  0  0  0  0  0  0  0  0  0
   -4.7000   -5.2036   12.2721 N   0  0  0  0  0  0  0  0  0  0  0  0
   -4.7505   -6.0594   12.8122 H   0  0  0  0  0  0  0  0  0  0  0  0
   -6.0680   -3.2086   11.6972 C   0  0  0  0  0  0  0  0  0  0  0  0
   -6.9530   -3.4743   10.6480 C   0  0  0  0  0  0  0  0  0  0  0  0
   -7.3750   -2.4321    9.8211 C   0  0  0  0  0  0  0  0  0  0  0  0
   -6.9002   -1.1353   10.0306 C   0  0  0  0  0  0  0  0  0  0  0  0
   -5.9810   -0.8793   11.0482 C   0  0  0  0  0  0  0  0  0  0  0  0
   -5.5503   -1.9179   11.8728 C   0  0  0  0  0  0  0  0  0  0  0  0
 23 24  2  0  0  0
 24 25  1  0  0  0
 25  1  1  0  0  0
  1  2  2  0  0  0
  2  3  1  0  0  0
  3  4  2  0  0  0
  4  5  1  0  0  0
  7  8  1  0  0  0
  8  9  1  0  0  0
  9 10  1  0  0  0
 10 11  1  0  0  0
 11 13  1  0  0  0
 13 14  2  0  0  0
 14 15  1  0  0  0
 15 16  2  0  0  0
 16 17  1  0  0  0
 17 18  1  0  0  0
 18 19  1  0  0  0
 19 20  2  0  0  0
 20 21  1  0  0  0
 13 21  1  0  0  0
 17 21  2  0  0  0
 11 12  1  0  0  0
  7 12  1  0  0  0
  5  6  2  0  0  0
  1  6  1  0  0  0
 24 27  1  0  0  0
 27 28  2  0  0  0
 28 29  1  0  0  0
 29 30  2  0  0  0
 30 31  1  0  0  0
 31 32  2  0  0  0
 27 32  1  0  0  0
 25 26  1  0  0  0
 18 22  1  0  0  0
  7  5  1  0  0  0
M  END
> <minimizedAffinity>
-5.09534

$$$$
mol_CHEMBL3716162_8


 32 36  0  0  0  0  0  0  0  0999 V2000
   -3.6503   -5.4365   11.0164 C   0  0  0  0  0  0  0  0  0  0  0  0
   -3.6141   -6.0644    9.7682 C   0  0  0  0  0  0  0  0  0  0  0  0
   -2.5192   -5.9271    8.9263 C   0  0  0  0  0  0  0  0  0  0  0  0
   -1.4829   -5.0830    9.2894 C   0  0  0  0  0  0  0  0  0  0  0  0
   -1.5485   -4.3212   10.4712 C   0  0  0  0  0  0  0  0  0  0  0  0
   -2.6361   -4.5195   11.3424 C   0  0  0  0  0  0  0  0  0  0  0  0
   -0.5140   -3.2132   10.6105 C   0  0  0  0  0  0  0  0  0  0  0  0
   -1.1509   -2.1171   11.4986 C   0  0  0  0  0  0  0  0  0  0  0  0
   -0.2385   -0.9046   11.6305 C   0  0  0  0  0  0  0  0  0  0  0  0
    1.1265   -1.3225   12.1727 C   0  0  0  0  0  0  0  0  0  0  0  0
    1.6843   -2.3444   11.2848 N   0  0  0  0  0  0  0  0  0  0  0  0
    0.8925   -3.5686   11.1378 C   0  0  0  0  0  0  0  0  0  0  0  0
    2.7509   -1.9659   10.4904 C   0  0  0  0  0  0  0  0  0  0  0  0
    2.4574   -1.2653    9.3536 N   0  0  0  0  0  0  0  0  0  0  0  0
    3.4367   -0.8754    8.5200 C   0  0  0  0  0  0  0  0  0  0  0  0
    4.7489   -1.0997    8.6382 N   0  0  0  0  0  0  0  0  0  0  0  0
    5.0187   -1.7968    9.7493 C   0  0  0  0  0  0  0  0  0  0  0  0
    6.2799   -2.1879   10.1016 N   0  0  0  0  0  0  0  0  0  0  0  0
    6.2328   -2.9061   11.2649 C   0  0  0  0  0  0  0  0  0  0  0  0
    4.9127   -2.9653   11.6626 C   0  0  0  0  0  0  0  0  0  0  0  0
    4.1205   -2.2537   10.7092 C   0  0  0  0  0  0  0  0  0  0  0  0
    7.1015   -1.9800    9.5525 H   0  0  0  0  0  0  0  0  0  0  0  0
   -6.3935   -5.0645   13.3350 O   0  0  0  0  0  0  0  0  0  0  0  0
   -5.7277   -4.8181   12.3317 C   0  0  0  0  0  0  0  0  0  0  0  0
   -4.6957   -5.6565   11.9409 N   0  0  0  0  0  0  0  0  0  0  0  0
   -4.7219   -6.5519   12.4141 H   0  0  0  0  0  0  0  0  0  0  0  0
   -6.0921   -3.6459   11.5008 C   0  0  0  0  0  0  0  0  0  0  0  0
   -6.9428   -3.8222   10.4044 C   0  0  0  0  0  0  0  0  0  0  0  0
   -7.4362   -2.7020    9.7317 C   0  0  0  0  0  0  0  0  0  0  0  0
   -7.0616   -1.4185   10.1381 C   0  0  0  0  0  0  0  0  0  0  0  0
   -6.1643   -1.2484   11.1931 C   0  0  0  0  0  0  0  0  0  0  0  0
   -5.6640   -2.3624   11.8661 C   0  0  0  0  0  0  0  0  0  0  0  0
 23 24  2  0  0  0
 24 25  1  0  0  0
 25  1  1  0  0  0
  1  2  2  0  0  0
  2  3  1  0  0  0
  3  4  2  0  0  0
  4  5  1  0  0  0
  7  8  1  0  0  0
  8  9  1  0  0  0
  9 10  1  0  0  0
 10 11  1  0  0  0
 11 13  1  0  0  0
 13 14  2  0  0  0
 14 15  1  0  0  0
 15 16  2  0  0  0
 16 17  1  0  0  0
 17 18  1  0  0  0
 18 19  1  0  0  0
 19 20  2  0  0  0
 20 21  1  0  0  0
 13 21  1  0  0  0
 17 21  2  0  0  0
 11 12  1  0  0  0
  7 12  1  0  0  0
  5  6  2  0  0  0
  1  6  1  0  0  0
 24 27  1  0  0  0
 27 28  2  0  0  0
 28 29  1  0  0  0
 29 30  2  0  0  0
 30 31  1  0  0  0
 31 32  2  0  0  0
 27 32  1  0  0  0
 25 26  1  0  0  0
 18 22  1  0  0  0
  7  5  1  0  0  0
M  END
> <minimizedAffinity>
-5.02987

$$$$
mol_CHEMBL4649816_9


 32 36  0  0  0  0  0  0  0  0999 V2000
   -3.7591   -5.1774   11.2503 C   0  0  0  0  0  0  0  0  0  0  0  0
   -3.6191   -6.0280   10.1523 C   0  0  0  0  0  0  0  0  0  0  0  0
   -2.5354   -5.8951    9.2896 C   0  0  0  0  0  0  0  0  0  0  0  0
   -1.5996   -4.8886    9.5033 C   0  0  0  0  0  0  0  0  0  0  0  0
   -1.7500   -3.9714   10.5579 C   0  0  0  0  0  0  0  0  0  0  0  0
   -2.8510   -4.1220   11.4185 C   0  0  0  0  0  0  0  0  0  0  0  0
   -0.7202   -2.8560   10.6824 C   0  0  0  0  0  0  0  0  0  0  0  0
   -0.9202   -2.1053   12.0206 C   0  0  0  0  0  0  0  0  0  0  0  0
    0.0874   -0.9680   12.2020 C   0  0  0  0  0  0  0  0  0  0  0  0
    1.5237   -1.4575   12.0243 C   0  0  0  0  0  0  0  0  0  0  0  0
    1.6018   -2.0965   10.7227 N   0  0  0  0  0  0  0  0  0  0  0  0
    0.7591   -3.2678   10.5117 C   0  0  0  0  0  0  0  0  0  0  0  0
    2.7223   -1.8909    9.9506 C   0  0  0  0  0  0  0  0  0  0  0  0
    2.6805   -1.0069    8.9213 N   0  0  0  0  0  0  0  0  0  0  0  0
    3.7642   -0.8760    8.1300 C   0  0  0  0  0  0  0  0  0  0  0  0
    4.9273   -1.5462    8.1916 N   0  0  0  0  0  0  0  0  0  0  0  0
    4.9187   -2.4313    9.1977 C   0  0  0  0  0  0  0  0  0  0  0  0
    5.9379   -3.3004    9.4771 N   0  0  0  0  0  0  0  0  0  0  0  0
    5.5941   -4.0942   10.5416 C   0  0  0  0  0  0  0  0  0  0  0  0
    4.3344   -3.7148   10.9542 C   0  0  0  0  0  0  0  0  0  0  0  0
    3.8964   -2.6550   10.1060 C   0  0  0  0  0  0  0  0  0  0  0  0
    6.7923   -3.3518    8.9419 H   0  0  0  0  0  0  0  0  0  0  0  0
   -6.3925   -4.5904   13.6334 O   0  0  0  0  0  0  0  0  0  0  0  0
   -5.7549   -4.4048   12.5986 C   0  0  0  0  0  0  0  0  0  0  0  0
   -4.7947   -5.3108   12.1959 N   0  0  0  0  0  0  0  0  0  0  0  0
   -4.8719   -6.1973   12.6804 H   0  0  0  0  0  0  0  0  0  0  0  0
   -6.1012   -3.2461   11.7422 C   0  0  0  0  0  0  0  0  0  0  0  0
   -6.9295   -3.4434   10.6335 C   0  0  0  0  0  0  0  0  0  0  0  0
   -7.3235   -2.3478    9.8635 C   0  0  0  0  0  0  0  0  0  0  0  0
   -6.8762   -1.0653   10.1893 C   0  0  0  0  0  0  0  0  0  0  0  0
   -6.0123   -0.8750   11.2678 C   0  0  0  0  0  0  0  0  0  0  0  0
   -5.6103   -1.9666   12.0364 C   0  0  0  0  0  0  0  0  0  0  0  0
 23 24  2  0  0  0
 24 25  1  0  0  0
 25  1  1  0  0  0
  1  2  2  0  0  0
  2  3  1  0  0  0
  3  4  2  0  0  0
  4  5  1  0  0  0
  7  8  1  0  0  0
  8  9  1  0  0  0
  9 10  1  0  0  0
 10 11  1  0  0  0
 11 13  1  0  0  0
 13 14  2  0  0  0
 14 15  1  0  0  0
 15 16  2  0  0  0
 16 17  1  0  0  0
 17 18  1  0  0  0
 18 19  1  0  0  0
 19 20  2  0  0  0
 20 21  1  0  0  0
 13 21  1  0  0  0
 17 21  2  0  0  0
 11 12  1  0  0  0
  7 12  1  0  0  0
  5  6  2  0  0  0
  1  6  1  0  0  0
 24 27  1  0  0  0
 27 28  2  0  0  0
 28 29  1  0  0  0
 29 30  2  0  0  0
 30 31  1  0  0  0
 31 32  2  0  0  0
 27 32  1  0  0  0
 25 26  1  0  0  0
 18 22  1  0  0  0
  7  5  1  0  0  0
M  END
> <minimizedAffinity>
-5.07340

$$$$
mol_CHEMBL3593768_10


 32 36  0  0  0  0  0  0  0  0999 V2000
   -7.8197   -3.2022   11.0887 C   0  0  0  0  0  0  0  0  0  0  0  0
   -8.0888   -1.9911   10.4495 C   0  0  0  0  0  0  0  0  0  0  0  0
   -7.1500   -0.9639   10.4628 C   0  0  0  0  0  0  0  0  0  0  0  0
   -5.9439   -1.1348   11.1357 C   0  0  0  0  0  0  0  0  0  0  0  0
   -5.6705   -2.3178   11.8435 C   0  0  0  0  0  0  0  0  0  0  0  0
   -6.6353   -3.3402   11.8254 C   0  0  0  0  0  0  0  0  0  0  0  0
   -4.3409   -2.4227   12.5808 C   0  0  0  0  0  0  0  0  0  0  0  0
   -4.4424   -3.4463   13.7368 C   0  0  0  0  0  0  0  0  0  0  0  0
   -3.1225   -3.5949   14.4996 C   0  0  0  0  0  0  0  0  0  0  0  0
   -1.9553   -3.8914   13.5586 C   0  0  0  0  0  0  0  0  0  0  0  0
   -1.9331   -2.8372   12.5609 N   0  0  0  0  0  0  0  0  0  0  0  0
   -3.1070   -2.7275   11.7030 C   0  0  0  0  0  0  0  0  0  0  0  0
   -0.7164   -2.3956   12.0897 C   0  0  0  0  0  0  0  0  0  0  0  0
   -0.0504   -1.4063   12.7352 N   0  0  0  0  0  0  0  0  0  0  0  0
    1.1098   -0.9587   12.2127 C   0  0  0  0  0  0  0  0  0  0  0  0
    1.7187   -1.3433   11.0769 N   0  0  0  0  0  0  0  0  0  0  0  0
    1.0125   -2.2958   10.4525 C   0  0  0  0  0  0  0  0  0  0  0  0
    1.3453   -2.8513    9.2468 N   0  0  0  0  0  0  0  0  0  0  0  0
    0.3924   -3.7667    8.8767 C   0  0  0  0  0  0  0  0  0  0  0  0
   -0.5605   -3.8020    9.8725 C   0  0  0  0  0  0  0  0  0  0  0  0
   -0.1729   -2.8702   10.8801 C   0  0  0  0  0  0  0  0  0  0  0  0
    2.1607   -2.5868    8.7141 H   0  0  0  0  0  0  0  0  0  0  0  0
   -9.8217   -6.0133   10.0706 O   0  0  0  0  0  0  0  0  0  0  0  0
   -8.8208   -5.2996   10.0984 C   0  0  0  0  0  0  0  0  0  0  0  0
   -8.6965   -4.3033   11.0449 N   0  0  0  0  0  0  0  0  0  0  0  0
   -9.3493   -4.4118   11.8120 H   0  0  0  0  0  0  0  0  0  0  0  0
   -7.7053   -5.5914    9.1672 C   0  0  0  0  0  0  0  0  0  0  0  0
   -6.6479   -6.3942    9.6035 C   0  0  0  0  0  0  0  0  0  0  0  0
   -5.6270   -6.7330    8.7139 C   0  0  0  0  0  0  0  0  0  0  0  0
   -5.6538   -6.2557    7.4015 C   0  0  0  0  0  0  0  0  0  0  0  0
   -6.6854   -5.4169    6.9796 C   0  0  0  0  0  0  0  0  0  0  0  0
   -7.7045   -5.0705    7.8657 C   0  0  0  0  0  0  0  0  0  0  0  0
 23 24  2  0  0  0
 24 25  1  0  0  0
 25  1  1  0  0  0
  1  2  2  0  0  0
  2  3  1  0  0  0
  3  4  2  0  0  0
  4  5  1  0  0  0
  7  8  1  0  0  0
  8  9  1  0  0  0
  9 10  1  0  0  0
 10 11  1  0  0  0
 11 13  1  0  0  0
 13 14  2  0  0  0
 14 15  1  0  0  0
 15 16  2  0  0  0
 16 17  1  0  0  0
 17 18  1  0  0  0
 18 19  1  0  0  0
 19 20  2  0  0  0
 20 21  1  0  0  0
 13 21  1  0  0  0
 17 21  2  0  0  0
 11 12  1  0  0  0
  7 12  1  0  0  0
  5  6  2  0  0  0
  1  6  1  0  0  0
 24 27  1  0  0  0
 27 28  2  0  0  0
 28 29  1  0  0  0
 29 30  2  0  0  0
 30 31  1  0  0  0
 31 32  2  0  0  0
 27 32  1  0  0  0
 25 26  1  0  0  0
 18 22  1  0  0  0
  7  5  1  0  0  0
M  END
> <minimizedAffinity>
-4.92589

$$$$
mol_CHEMBL3718794_11


 32 36  0  0  0  0  0  0  0  0999 V2000
   -3.8007   -5.1032   11.5183 C   0  0  0  0  0  0  0  0  0  0  0  0
   -3.7867   -5.9726   10.4262 C   0  0  0  0  0  0  0  0  0  0  0  0
   -2.7478   -5.9274    9.5012 C   0  0  0  0  0  0  0  0  0  0  0  0
   -1.7264   -4.9949    9.6512 C   0  0  0  0  0  0  0  0  0  0  0  0
   -1.7436   -4.0663   10.7061 C   0  0  0  0  0  0  0  0  0  0  0  0
   -2.8057   -4.1216   11.6251 C   0  0  0  0  0  0  0  0  0  0  0  0
   -0.6191   -3.0417   10.7735 C   0  0  0  0  0  0  0  0  0  0  0  0
   -0.9767   -1.9333   11.7894 C   0  0  0  0  0  0  0  0  0  0  0  0
    0.1232   -0.8753   11.8983 C   0  0  0  0  0  0  0  0  0  0  0  0
    1.4871   -1.5055   12.1760 C   0  0  0  0  0  0  0  0  0  0  0  0
    1.7356   -2.4885   11.1333 N   0  0  0  0  0  0  0  0  0  0  0  0
    0.7920   -3.6013   11.0593 C   0  0  0  0  0  0  0  0  0  0  0  0
    3.0456   -2.7171   10.7601 C   0  0  0  0  0  0  0  0  0  0  0  0
    3.8519   -3.4889   11.5319 N   0  0  0  0  0  0  0  0  0  0  0  0
    5.1427   -3.6419   11.1724 C   0  0  0  0  0  0  0  0  0  0  0  0
    5.7888   -3.0970   10.1269 N   0  0  0  0  0  0  0  0  0  0  0  0
    4.9681   -2.3190    9.4080 C   0  0  0  0  0  0  0  0  0  0  0  0
    5.3453   -1.5892    8.3135 N   0  0  0  0  0  0  0  0  0  0  0  0
    4.2733   -0.8783    7.8359 C   0  0  0  0  0  0  0  0  0  0  0  0
    3.1900   -1.1685    8.6380 C   0  0  0  0  0  0  0  0  0  0  0  0
    3.6222   -2.0872    9.6395 C   0  0  0  0  0  0  0  0  0  0  0  0
    6.2865   -1.5712    7.9494 H   0  0  0  0  0  0  0  0  0  0  0  0
   -6.3376   -4.2785   13.9328 O   0  0  0  0  0  0  0  0  0  0  0  0
   -5.7504   -4.2123   12.8548 C   0  0  0  0  0  0  0  0  0  0  0  0
   -4.7916   -5.1460   12.5182 N   0  0  0  0  0  0  0  0  0  0  0  0
   -4.8317   -5.9735   13.1014 H   0  0  0  0  0  0  0  0  0  0  0  0
   -6.1593   -3.1769   11.8769 C   0  0  0  0  0  0  0  0  0  0  0  0
   -7.0012   -3.5326   10.8196 C   0  0  0  0  0  0  0  0  0  0  0  0
   -7.4503   -2.5495    9.9363 C   0  0  0  0  0  0  0  0  0  0  0  0
   -7.0431   -1.2231   10.0977 C   0  0  0  0  0  0  0  0  0  0  0  0
   -6.1665   -0.8769   11.1261 C   0  0  0  0  0  0  0  0  0  0  0  0
   -5.7116   -1.8551   12.0090 C   0  0  0  0  0  0  0  0  0  0  0  0
 23 24  2  0  0  0
 24 25  1  0  0  0
 25  1  1  0  0  0
  1  2  2  0  0  0
  2  3  1  0  0  0
  3  4  2  0  0  0
  4  5  1  0  0  0
  7  8  1  0  0  0
  8  9  1  0  0  0
  9 10  1  0  0  0
 10 11  1  0  0  0
 11 13  1  0  0  0
 13 14  2  0  0  0
 14 15  1  0  0  0
 15 16  2  0  0  0
 16 17  1  0  0  0
 17 18  1  0  0  0
 18 19  1  0  0  0
 19 20  2  0  0  0
 20 21  1  0  0  0
 13 21  1  0  0  0
 17 21  2  0  0  0
 11 12  1  0  0  0
  7 12  1  0  0  0
  5  6  2  0  0  0
  1  6  1  0  0  0
 24 27  1  0  0  0
 27 28  2  0  0  0
 28 29  1  0  0  0
 29 30  2  0  0  0
 30 31  1  0  0  0
 31 32  2  0  0  0
 27 32  1  0  0  0
 25 26  1  0  0  0
 18 22  1  0  0  0
  7  5  1  0  0  0
M  END
> <minimizedAffinity>
-4.92882

$$$$
mol_CHEMBL572170_12


 32 36  0  0  0  0  0  0  0  0999 V2000
   -3.8451   -5.1779   11.2670 C   0  0  0  0  0  0  0  0  0  0  0  0
   -3.8445   -6.0074   10.1442 C   0  0  0  0  0  0  0  0  0  0  0  0
   -2.8140   -5.9327    9.2119 C   0  0  0  0  0  0  0  0  0  0  0  0
   -1.7875   -5.0100    9.3859 C   0  0  0  0  0  0  0  0  0  0  0  0
   -1.7914   -4.1200   10.4738 C   0  0  0  0  0  0  0  0  0  0  0  0
   -2.8453   -4.2045   11.3998 C   0  0  0  0  0  0  0  0  0  0  0  0
   -0.6622   -3.1027   10.5677 C   0  0  0  0  0  0  0  0  0  0  0  0
   -1.0456   -1.9803   11.5585 C   0  0  0  0  0  0  0  0  0  0  0  0
    0.0581   -0.9289   11.6926 C   0  0  0  0  0  0  0  0  0  0  0  0
    1.4071   -1.5656   12.0232 C   0  0  0  0  0  0  0  0  0  0  0  0
    1.6832   -2.5622   11.0005 N   0  0  0  0  0  0  0  0  0  0  0  0
    0.7341   -3.6690   10.9071 C   0  0  0  0  0  0  0  0  0  0  0  0
    3.0032   -2.8044   10.6743 C   0  0  0  0  0  0  0  0  0  0  0  0
    3.7591   -3.6253   11.4467 N   0  0  0  0  0  0  0  0  0  0  0  0
    5.0609   -3.7923   11.1363 C   0  0  0  0  0  0  0  0  0  0  0  0
    5.7630   -3.2194   10.1431 N   0  0  0  0  0  0  0  0  0  0  0  0
    4.9904   -2.3942    9.4232 C   0  0  0  0  0  0  0  0  0  0  0  0
    5.4298   -1.6288    8.3773 N   0  0  0  0  0  0  0  0  0  0  0  0
    4.3945   -0.8750    7.8849 C   0  0  0  0  0  0  0  0  0  0  0  0
    3.2716   -1.1735    8.6273 C   0  0  0  0  0  0  0  0  0  0  0  0
    3.6408   -2.1421    9.6067 C   0  0  0  0  0  0  0  0  0  0  0  0
    6.3862   -1.6170    8.0547 H   0  0  0  0  0  0  0  0  0  0  0  0
   -6.3313   -4.4294   13.7580 O   0  0  0  0  0  0  0  0  0  0  0  0
   -5.7528   -4.3134   12.6795 C   0  0  0  0  0  0  0  0  0  0  0  0
   -4.8272   -5.2530   12.2738 N   0  0  0  0  0  0  0  0  0  0  0  0
   -4.8877   -6.1141   12.8042 H   0  0  0  0  0  0  0  0  0  0  0  0
   -6.1381   -3.2062   11.7734 C   0  0  0  0  0  0  0  0  0  0  0  0
   -7.0790   -3.4444   10.7678 C   0  0  0  0  0  0  0  0  0  0  0  0
   -7.5022   -2.3901    9.9570 C   0  0  0  0  0  0  0  0  0  0  0  0
   -6.9720   -1.1104   10.1375 C   0  0  0  0  0  0  0  0  0  0  0  0
   -5.9994   -0.8832   11.1112 C   0  0  0  0  0  0  0  0  0  0  0  0
   -5.5702   -1.9332   11.9216 C   0  0  0  0  0  0  0  0  0  0  0  0
 23 24  2  0  0  0
 24 25  1  0  0  0
 25  1  1  0  0  0
  1  2  2  0  0  0
  2  3  1  0  0  0
  3  4  2  0  0  0
  4  5  1  0  0  0
  7  8  1  0  0  0
  8  9  1  0  0  0
  9 10  1  0  0  0
 10 11  1  0  0  0
 11 13  1  0  0  0
 13 14  2  0  0  0
 14 15  1  0  0  0
 15 16  2  0  0  0
 16 17  1  0  0  0
 17 18  1  0  0  0
 18 19  1  0  0  0
 19 20  2  0  0  0
 20 21  1  0  0  0
 13 21  1  0  0  0
 17 21  2  0  0  0
 11 12  1  0  0  0
  7 12  1  0  0  0
  5  6  2  0  0  0
  1  6  1  0  0  0
 24 27  1  0  0  0
 27 28  2  0  0  0
 28 29  1  0  0  0
 29 30  2  0  0  0
 30 31  1  0  0  0
 31 32  2  0  0  0
 27 32  1  0  0  0
 25 26  1  0  0  0
 18 22  1  0  0  0
  7  5  1  0  0  0
M  END
> <minimizedAffinity>
-5.00794

$$$$
mol_CHEMBL585734_13


 32 36  0  0  0  0  0  0  0  0999 V2000
   -3.9651   -5.0983   11.4304 C   0  0  0  0  0  0  0  0  0  0  0  0
   -4.0180   -5.9469   10.3237 C   0  0  0  0  0  0  0  0  0  0  0  0
   -3.0131   -5.9135    9.3615 C   0  0  0  0  0  0  0  0  0  0  0  0
   -1.9596   -5.0134    9.4897 C   0  0  0  0  0  0  0  0  0  0  0  0
   -1.9119   -4.1013   10.5581 C   0  0  0  0  0  0  0  0  0  0  0  0
   -2.9407   -4.1452   11.5149 C   0  0  0  0  0  0  0  0  0  0  0  0
   -0.7444   -3.1239   10.6149 C   0  0  0  0  0  0  0  0  0  0  0  0
   -1.1075   -1.9000   11.4888 C   0  0  0  0  0  0  0  0  0  0  0  0
    0.0416   -0.8917   11.5813 C   0  0  0  0  0  0  0  0  0  0  0  0
    1.3444   -1.5576   12.0230 C   0  0  0  0  0  0  0  0  0  0  0  0
    1.6026   -2.6485   11.1001 N   0  0  0  0  0  0  0  0  0  0  0  0
    0.6103   -3.7167   11.0612 C   0  0  0  0  0  0  0  0  0  0  0  0
    2.9076   -2.9352   10.7638 C   0  0  0  0  0  0  0  0  0  0  0  0
    3.6271   -3.8153   11.5036 N   0  0  0  0  0  0  0  0  0  0  0  0
    4.9198   -4.0275   11.1825 C   0  0  0  0  0  0  0  0  0  0  0  0
    5.6459   -3.4469   10.2107 N   0  0  0  0  0  0  0  0  0  0  0  0
    4.9096   -2.5610    9.5258 C   0  0  0  0  0  0  0  0  0  0  0  0
    5.3810   -1.7721    8.5118 N   0  0  0  0  0  0  0  0  0  0  0  0
    4.3790   -0.9548    8.0530 C   0  0  0  0  0  0  0  0  0  0  0  0
    3.2441   -1.2369    8.7832 C   0  0  0  0  0  0  0  0  0  0  0  0
    3.5722   -2.2595    9.7215 C   0  0  0  0  0  0  0  0  0  0  0  0
    6.3373   -1.7869    8.1888 H   0  0  0  0  0  0  0  0  0  0  0  0
   -6.3992   -4.2763   13.9499 O   0  0  0  0  0  0  0  0  0  0  0  0
   -5.8558   -4.2058   12.8492 C   0  0  0  0  0  0  0  0  0  0  0  0
   -4.9113   -5.1385   12.4728 N   0  0  0  0  0  0  0  0  0  0  0  0
   -4.9286   -5.9666   13.0563 H   0  0  0  0  0  0  0  0  0  0  0  0
   -6.3038   -3.1655   11.8933 C   0  0  0  0  0  0  0  0  0  0  0  0
   -5.8629   -1.8502   12.0639 C   0  0  0  0  0  0  0  0  0  0  0  0
   -6.2216   -0.8764   11.1304 C   0  0  0  0  0  0  0  0  0  0  0  0
   -7.0321   -1.2121   10.0435 C   0  0  0  0  0  0  0  0  0  0  0  0
   -7.5096   -2.5147    9.8987 C   0  0  0  0  0  0  0  0  0  0  0  0
   -7.1594   -3.4901   10.8313 C   0  0  0  0  0  0  0  0  0  0  0  0
 23 24  2  0  0  0
 24 25  1  0  0  0
 25  1  1  0  0  0
  1  2  2  0  0  0
  2  3  1  0  0  0
  3  4  2  0  0  0
  4  5  1  0  0  0
  7  8  1  0  0  0
  8  9  1  0  0  0
  9 10  1  0  0  0
 10 11  1  0  0  0
 11 13  1  0  0  0
 13 14  2  0  0  0
 14 15  1  0  0  0
 15 16  2  0  0  0
 16 17  1  0  0  0
 17 18  1  0  0  0
 18 19  1  0  0  0
 19 20  2  0  0  0
 20 21  1  0  0  0
 13 21  1  0  0  0
 17 21  2  0  0  0
 11 12  1  0  0  0
  7 12  1  0  0  0
  5  6  2  0  0  0
  1  6  1  0  0  0
 24 27  1  0  0  0
 27 28  2  0  0  0
 28 29  1  0  0  0
 29 30  2  0  0  0
 30 31  1  0  0  0
 31 32  2  0  0  0
 27 32  1  0  0  0
 25 26  1  0  0  0
 18 22  1  0  0  0
  7  5  1  0  0  0
M  END
> <minimizedAffinity>
-4.86704

$$$$
mol_CHEMBL4448573_14


 32 36  0  0  0  0  0  0  0  0999 V2000
   -7.8368   -3.1535   11.2075 C   0  0  0  0  0  0  0  0  0  0  0  0
   -8.0243   -1.9867   10.4659 C   0  0  0  0  0  0  0  0  0  0  0  0
   -7.0379   -1.0045   10.4415 C   0  0  0  0  0  0  0  0  0  0  0  0
   -5.8608   -1.1826   11.1644 C   0  0  0  0  0  0  0  0  0  0  0  0
   -5.6663   -2.3240   11.9601 C   0  0  0  0  0  0  0  0  0  0  0  0
   -6.6879   -3.2891   11.9962 C   0  0  0  0  0  0  0  0  0  0  0  0
   -4.3365   -2.4839   12.6867 C   0  0  0  0  0  0  0  0  0  0  0  0
   -4.4073   -3.5751   13.7793 C   0  0  0  0  0  0  0  0  0  0  0  0
   -3.0723   -3.7350   14.5189 C   0  0  0  0  0  0  0  0  0  0  0  0
   -1.9004   -3.9402   13.5557 C   0  0  0  0  0  0  0  0  0  0  0  0
   -1.9237   -2.8403   12.6085 N   0  0  0  0  0  0  0  0  0  0  0  0
   -3.1157   -2.7320   11.7766 C   0  0  0  0  0  0  0  0  0  0  0  0
   -0.7352   -2.3810   12.0818 C   0  0  0  0  0  0  0  0  0  0  0  0
   -0.0453   -1.3891   12.6952 N   0  0  0  0  0  0  0  0  0  0  0  0
    1.1037   -0.9596   12.1327 C   0  0  0  0  0  0  0  0  0  0  0  0
    1.6790   -1.3668   10.9862 N   0  0  0  0  0  0  0  0  0  0  0  0
    0.9467   -2.3203   10.3941 C   0  0  0  0  0  0  0  0  0  0  0  0
    1.2438   -2.9043    9.1923 N   0  0  0  0  0  0  0  0  0  0  0  0
    0.2726   -3.8168    8.8644 C   0  0  0  0  0  0  0  0  0  0  0  0
   -0.6556   -3.8214    9.8835 C   0  0  0  0  0  0  0  0  0  0  0  0
   -0.2326   -2.8740   10.8618 C   0  0  0  0  0  0  0  0  0  0  0  0
    2.0511   -2.6635    8.6361 H   0  0  0  0  0  0  0  0  0  0  0  0
   -9.9423   -5.9177   10.2798 O   0  0  0  0  0  0  0  0  0  0  0  0
   -8.9225   -5.2305   10.2756 C   0  0  0  0  0  0  0  0  0  0  0  0
   -8.7533   -4.2214   11.2006 N   0  0  0  0  0  0  0  0  0  0  0  0
   -9.3857   -4.3025   11.9880 H   0  0  0  0  0  0  0  0  0  0  0  0
   -7.8299   -5.5711    9.3329 C   0  0  0  0  0  0  0  0  0  0  0  0
   -7.8197   -4.9835    8.0651 C   0  0  0  0  0  0  0  0  0  0  0  0
   -6.7639   -5.2473    7.1910 C   0  0  0  0  0  0  0  0  0  0  0  0
   -5.7338   -6.1086    7.5754 C   0  0  0  0  0  0  0  0  0  0  0  0
   -5.7673   -6.7311    8.8230 C   0  0  0  0  0  0  0  0  0  0  0  0
   -6.8231   -6.4765    9.6973 C   0  0  0  0  0  0  0  0  0  0  0  0
 23 24  2  0  0  0
 24 25  1  0  0  0
 25  1  1  0  0  0
  1  2  2  0  0  0
  2  3  1  0  0  0
  3  4  2  0  0  0
  4  5  1  0  0  0
  7  8  1  0  0  0
  8  9  1  0  0  0
  9 10  1  0  0  0
 10 11  1  0  0  0
 11 13  1  0  0  0
 13 14  2  0  0  0
 14 15  1  0  0  0
 15 16  2  0  0  0
 16 17  1  0  0  0
 17 18  1  0  0  0
 18 19  1  0  0  0
 19 20  2  0  0  0
 20 21  1  0  0  0
 13 21  1  0  0  0
 17 21  2  0  0  0
 11 12  1  0  0  0
  7 12  1  0  0  0
  5  6  2  0  0  0
  1  6  1  0  0  0
 24 27  1  0  0  0
 27 28  2  0  0  0
 28 29  1  0  0  0
 29 30  2  0  0  0
 30 31  1  0  0  0
 31 32  2  0  0  0
 27 32  1  0  0  0
 25 26  1  0  0  0
 18 22  1  0  0  0
  7  5  1  0  0  0
M  END
> <minimizedAffinity>
-4.92215

$$$$
