@<TRIPOS>MOLECULE
Molecule ligands12_1.mol2
     3     0
SMALL
NO_CHARGES
@<TRIPOS>ATOM
      2 DON        -2.5473    4.3792    0.0329 HB    1     HB      0.0000
      7 ACC        -0.3309    4.2329   -0.0006 HB    6     HB      0.0000
     10 AR         -1.4828    1.0308    0.2117 AR    9     AR      0.0000
@<TRIPOS>BOND
@<TRIPOS>MOLECULE
ligands12_1.mol2
    44    46
SMALL
NO_CHARGES
@<TRIPOS>ATOM
      1 C1          5.3649    1.3314   -1.5123 C.3   1     AAA1    0.0431
      2 O1          5.4200    0.0876   -0.8108 O.3   1     AAA1   -0.3464
      3 C2          4.2128   -0.0774   -0.2083 C.ar  1     AAA1    0.0956
      4 C3          3.2269    0.8853   -0.3558 C.ar  1     AAA1   -0.0121
      5 C4          1.9949    0.7136    0.2604 C.ar  1     AAA1    0.0236
      6 N1          0.9981    1.6823    0.1135 N.pl3 1     AAA1   -0.2411
      7 C5         -0.3466    1.3133    0.1668 C.ar  1     AAA1    0.1388
      8 N2         -0.8082    0.0907    0.2529 N.ar  1     AAA1   -0.1802
      9 N3         -2.2064    0.1361    0.2826 N.ar  1     AAA1   -0.1671
     10 C6         -3.0969   -1.0234    0.3752 C.3   1     AAA1    0.0753
     11 C7         -4.3286   -0.6580    1.2068 C.3   1     AAA1    0.0666
     12 O2         -5.1872   -1.7910    1.3222 O.3   1     AAA1   -0.3781
     13 C8         -5.7184   -2.0636    0.0269 C.3   1     AAA1    0.0490
     14 C9         -4.6006   -2.5441   -0.9013 C.3   1     AAA1   -0.0122
     15 C10        -3.5462   -1.4386   -1.0303 C.3   1     AAA1    0.0681
     16 C11        -2.3938   -1.9421   -1.7954 C.1   1     AAA1    0.0677
     17 N4         -1.5045   -2.3306   -2.3859 N.1   1     AAA1   -0.1962
     18 C12        -2.5959    1.4179    0.2126 C.ar  1     AAA1    0.0188
     19 C13        -1.4568    2.1962    0.1435 C.ar  1     AAA1    0.0836
     20 C14        -1.4048    3.6645    0.0541 C.2   1     AAA1    0.2329
     21 N5         -2.5473    4.3792    0.0329 N.am  1     AAA1   -0.2681
     22 O3         -0.3309    4.2329   -0.0006 O.2   1     AAA1   -0.2741
     23 C15         1.7536   -0.4227    1.0231 C.ar  1     AAA1   -0.0420
     24 C16         2.7385   -1.3803    1.1680 C.ar  1     AAA1   -0.0394
     25 C17         3.9647   -1.2135    0.5506 C.ar  1     AAA1    0.0709
     26 Cl1         5.1994   -2.4198    0.7348 Cl    1     AAA1   -0.0809
     27 H11         6.3552    1.4668   -2.0065 H     1     AAA1    0.0529
     28 H12         5.0773    2.1903   -0.8620 H     1     AAA1    0.0529
     29 H13         4.5946    1.2372   -2.3129 H     1     AAA1    0.0529
     30 H3          3.4208    1.7863   -0.9617 H     1     AAA1    0.0660
     31 H1          1.2536    2.6589   -0.0327 H     1     AAA1    0.1351
     32 H6         -2.5574   -1.8704    0.8598 H     1     AAA1    0.0521
     33 H71        -4.8615    0.2319    0.7979 H     1     AAA1    0.0576
     34 H72        -3.9766   -0.3972    2.2321 H     1     AAA1    0.0576
     35 H81        -6.2659   -1.1884   -0.3944 H     1     AAA1    0.0560
     36 H82        -6.4498   -2.8985    0.1325 H     1     AAA1    0.0560
     37 H91        -4.9869   -2.8793   -1.8921 H     1     AAA1    0.0300
     38 H92        -4.1123   -3.4209   -0.4155 H     1     AAA1    0.0300
     39 H10        -3.9884   -0.5602   -1.5558 H     1     AAA1    0.0471
     40 H12        -3.6364    1.7838    0.2106 H     1     AAA1    0.0772
     41 H51        -2.5113    5.3967   -0.0291 H     1     AAA1    0.1269
     42 H52        -3.4479    3.9026    0.0788 H     1     AAA1    0.1269
     43 H15         0.7750   -0.5600    1.5131 H     1     AAA1    0.0634
     44 H16         2.5466   -2.2796    1.7772 H     1     AAA1    0.0633
@<TRIPOS>BOND
     1     1     2    1 
     2     1    27    1 
     3     1    28    1 
     4     1    29    1 
     5     2     3    1 
     6     3     4    ar
     7     3    25    ar
     8     4     5    ar
     9     4    30    1 
    10     5     6    1 
    11     5    23    ar
    12     6     7    1 
    13     6    31    1 
    14     7     8    ar
    15     7    19    ar
    16     8     9    ar
    17     9    10    1 
    18     9    18    ar
    19    10    11    1 
    20    10    15    1 
    21    10    32    1 
    22    11    12    1 
    23    11    33    1 
    24    11    34    1 
    25    12    13    1 
    26    13    14    1 
    27    13    35    1 
    28    13    36    1 
    29    14    15    1 
    30    14    37    1 
    31    14    38    1 
    32    15    16    1 
    33    15    39    1 
    34    16    17    1 
    35    18    19    ar
    36    18    40    1 
    37    19    20    1 
    38    20    21    am
    39    20    22    2 
    40    21    41    1 
    41    21    42    1 
    42    23    24    ar
    43    23    43    1 
    44    24    25    ar
    45    24    44    1 
    46    25    26    1 
@<TRIPOS>MOLECULE
Molecule ligands12_1.mol2
    12     0
SMALL
NO_CHARGES
@<TRIPOS>ATOM
      1 DON         0.9981    1.6823    0.1135 HB    0     HB      0.0000
      2 DON        -2.5473    4.3792    0.0329 HB    1     HB      0.0000
      3 ACC         5.4200    0.0876   -0.8108 HB    2     HB      0.0000
      4 ACC        -0.8082    0.0907    0.2529 HB    3     HB      0.0000
      5 ACC        -5.1872   -1.7910    1.3222 HB    4     HB      0.0000
      6 ACC        -1.5045   -2.3306   -2.3859 HB    5     HB      0.0000
      7 ACC        -0.3309    4.2329   -0.0006 HB    6     HB      0.0000
      8 CAT        -2.2064    0.1361    0.2826 CHG   7     CHG    -0.1671
      9 AR          2.9819   -0.2492    0.4063 AR    8     AR      0.0000
     10 AR         -1.4828    1.0308    0.2117 AR    9     AR      0.0000
     11 HYD        -4.0734   -1.9913   -0.9658 HYD   10    HYD     0.0000
     12 HYD         5.3649    1.3314   -1.5123 HYD   11    HYD     0.0000
@<TRIPOS>BOND
@<TRIPOS>MOLECULE
ligands12_2.mol2
    42    45
SMALL
NO_CHARGES
@<TRIPOS>ATOM
      1 C1         -2.2983   -2.6115   -2.4953 C.3   1     AAB1    0.0431
      2 O1         -1.8231   -1.6148   -1.5882 O.3   1     AAB1   -0.3473
      3 C2         -2.9032   -1.1671   -0.8957 C.ar  1     AAB1    0.0851
      4 C3         -4.1594   -1.6922   -1.1520 C.ar  1     AAB1   -0.0297
      5 C4         -5.2577   -1.2360   -0.4476 C.ar  1     AAB1   -0.0409
      6 C5         -5.1099   -0.2537    0.5170 C.ar  1     AAB1    0.0418
      7 Cl1        -6.4963    0.3112    1.3959 Cl    1     AAB1   -0.0835
      8 C6         -3.8630    0.2778    0.7824 C.ar  1     AAB1   -0.0316
      9 C7         -2.7494   -0.1793    0.0815 C.ar  1     AAB1    0.0345
     10 C8         -1.2492    0.8208    0.2181 C.ar  1     AAB1    0.1074
     11 N1         -0.0725    0.2306    0.2258 N.ar  1     AAB1   -0.1916
     12 N2          0.9155    1.2197    0.1423 N.ar  1     AAB1   -0.1768
     13 C9          2.3623    0.9904    0.1212 C.3   1     AAB1    0.0136
     14 C10         0.2984    2.4293    0.0836 C.ar  1     AAB1    0.0235
     15 C11        -1.0394    2.2141    0.1228 C.ar  1     AAB1    0.0624
     16 N3         -2.0392    3.2021    0.0848 N.am  1     AAB1   -0.2214
     17 C12        -1.7964    4.4265    0.5933 C.2   1     AAB1    0.2411
     18 O2         -0.7115    4.6769    1.0855 O.2   1     AAB1   -0.2735
     19 C13        -2.8387    5.4564    0.5536 C.ar  1     AAB1    0.1091
     20 C14        -4.1331    5.3177    0.0215 C.ar  1     AAB1    0.0738
     21 N4         -4.7708    6.4490    0.1687 N.ar  1     AAB1   -0.0483
     22 N5         -3.9355    7.3780    0.7986 N.ar  1     AAB1    0.3047
     23 C15        -4.1263    8.6756    1.1705 C.ar  1     AAB1    0.1808
     24 C16        -3.1140    9.3448    1.7786 C.ar  1     AAB1   -0.0142
     25 C17        -1.8992    8.6891    2.0098 C.ar  1     AAB1    0.0316
     26 N6         -1.7446    7.4369    1.6394 N.ar  1     AAB1   -0.2265
     27 C18        -2.7369    6.7714    1.0466 C.ar  1     AAB1    0.3159
     28 H11        -1.4119   -2.9788   -3.0635 H     1     AAB1    0.0529
     29 H12        -3.1228   -2.2498   -3.1531 H     1     AAB1    0.0529
     30 H13        -2.6922   -3.4619   -1.8914 H     1     AAB1    0.0529
     31 H3         -4.2832   -2.4751   -1.9190 H     1     AAB1    0.0644
     32 H4         -6.2562   -1.6563   -0.6549 H     1     AAB1    0.0633
     33 H6         -3.7491    1.0633    1.5484 H     1     AAB1    0.0639
     34 H91         3.1489    1.7778    0.0548 H     1     AAB1    0.0414
     35 H92         2.5565    0.2798   -0.7157 H     1     AAB1    0.0414
     36 H93         2.5877    0.4219    1.0535 H     1     AAB1    0.0414
     37 H10         0.7972    3.4108    0.0162 H     1     AAB1    0.0780
     38 H3         -2.9481    2.9922   -0.3275 H     1     AAB1    0.1367
     39 H14        -4.5425    4.4049   -0.4432 H     1     AAB1    0.0857
     40 H15        -5.0910    9.1752    0.9796 H     1     AAB1    0.0943
     41 H16        -3.2474   10.3952    2.0875 H     1     AAB1    0.0649
     42 H17        -1.0702    9.2236    2.5034 H     1     AAB1    0.0830
@<TRIPOS>BOND
     1     1     2    1 
     2     1    28    1 
     3     1    29    1 
     4     1    30    1 
     5     2     3    1 
     6     3     4    ar
     7     3     9    ar
     8     4     5    ar
     9     4    31    1 
    10     5     6    ar
    11     5    32    1 
    12     6     7    1 
    13     6     8    ar
    14     8     9    ar
    15     8    33    1 
    16     9    10    1 
    17    10    11    ar
    18    10    15    ar
    19    11    12    ar
    20    12    13    1 
    21    12    14    ar
    22    13    34    1 
    23    13    35    1 
    24    13    36    1 
    25    14    15    ar
    26    14    37    1 
    27    15    16    1 
    28    16    17    am
    29    16    38    1 
    30    17    18    2 
    31    17    19    1 
    32    19    20    ar
    33    19    27    ar
    34    20    21    ar
    35    20    39    1 
    36    21    22    ar
    37    22    23    1 
    38    22    27    ar
    39    23    24    2 
    40    23    40    1 
    41    24    25    2 
    42    24    41    1 
    43    25    26    2 
    44    25    42    1 
    45    26    27    1 
@<TRIPOS>MOLECULE
Molecule ligands12_2.mol2
    14     0
SMALL
NO_CHARGES
@<TRIPOS>ATOM
      1 DON        -2.0392    3.2021    0.0848 HB    0     HB      0.0000
      2 ACC        -1.8231   -1.6148   -1.5882 HB    1     HB      0.0000
      3 ACC        -0.0725    0.2306    0.2258 HB    2     HB      0.0000
      4 ACC        -0.7115    4.6769    1.0855 HB    3     HB      0.0000
      5 ACC        -4.7708    6.4490    0.1687 HB    4     HB      0.0000
      6 ACC        -1.7446    7.4369    1.6394 HB    5     HB      0.0000
      7 CAT         0.9155    1.2197    0.1423 CHG   6     CHG    -0.1768
      8 CAT        -3.9355    7.3780    0.7986 CHG   7     CHG     0.3047
      9 AR         -4.0071   -0.7084   -0.1857 AR    8     AR      0.0000
     10 AR         -0.2294    1.3829    0.1585 AR    9     AR      0.0000
     11 AR         -3.6830    6.2745    0.5178 AR    10    AR      0.0000
     12 AR         -2.9261    8.0493    1.4072 AR    11    AR      0.0000
     13 HYD        -2.2983   -2.6115   -2.4953 HYD   12    HYD     0.0000
     14 HYD         2.3623    0.9904    0.1212 HYD   13    HYD     0.0000
@<TRIPOS>BOND
@<TRIPOS>MOLECULE
ligands12_3.mol2
    34    36
SMALL
NO_CHARGES
@<TRIPOS>ATOM
      1 O1          0.0804    4.8667   -0.0587 O.2   1     AAC1   -0.2720
      2 C1         -0.8678    4.1058    0.0133 C.2   1     AAC1    0.2543
      3 N1         -2.1284    4.5844    0.0221 N.am  1     AAC1   -0.2296
      4 C2         -3.2176    3.7668    0.1006 C.2   1     AAC1   -0.0139
      5 C3         -3.1083    2.4275    0.1750 C.2   1     AAC1   -0.0385
      6 C4         -1.7836    1.8177    0.1723 C.ar  1     AAC1    0.0426
      7 C5         -1.5825    0.4230    0.2484 C.ar  1     AAC1    0.1180
      8 N2         -2.5142   -0.5575    0.3726 N.pl3 1     AAC1   -0.2690
      9 C6         -3.9207   -0.5976   -0.0351 C.3   1     AAC1    0.0134
     10 C7         -4.1449   -1.7815   -0.9780 C.3   1     AAC1   -0.0372
     11 C8         -5.6140   -1.8234   -1.4037 C.3   1     AAC1   -0.0516
     12 C9         -6.4993   -1.9823   -0.1661 C.3   1     AAC1   -0.0530
     13 C10        -6.2751   -0.7984    0.7768 C.3   1     AAC1   -0.0516
     14 C11        -4.8062   -0.7565    1.2026 C.3   1     AAC1   -0.0372
     15 N3         -0.3340   -0.0279    0.2396 N.ar  1     AAC1   -0.2236
     16 C12         0.6955    0.7980    0.1622 C.ar  1     AAC1    0.1186
     17 N4          0.5592    2.1042    0.0901 N.ar  1     AAC1   -0.2304
     18 C13        -0.6534    2.6544    0.0854 C.ar  1     AAC1    0.1342
     19 H1         -2.2726    5.5927   -0.0317 H     1     AAC1    0.1361
     20 H2         -4.2234    4.2194    0.1032 H     1     AAC1    0.0747
     21 H3         -4.0115    1.7974    0.2373 H     1     AAC1    0.0635
     22 H2         -1.9558   -1.4110    0.3626 H     1     AAC1    0.1294
     23 H6         -4.1827    0.3505   -0.5603 H     1     AAC1    0.0464
     24 H71        -3.8079   -2.7459   -0.5310 H     1     AAC1    0.0280
     25 H72        -3.5340   -1.6032   -1.8935 H     1     AAC1    0.0280
     26 H81        -5.8094   -2.6133   -2.1660 H     1     AAC1    0.0266
     27 H82        -5.8580   -0.8395   -1.8681 H     1     AAC1    0.0266
     28 H91        -6.3409   -2.9619    0.3424 H     1     AAC1    0.0265
     29 H92        -7.5610   -1.9467   -0.5048 H     1     AAC1    0.0265
     30 H101       -6.9669   -0.8191    1.6510 H     1     AAC1    0.0266
     31 H102       -6.4860    0.1338    0.2026 H     1     AAC1    0.0266
     32 H111       -4.5194   -1.6431    1.8148 H     1     AAC1    0.0280
     33 H112       -4.6650    0.1500    1.8361 H     1     AAC1    0.0280
     34 H12         1.7133    0.3731    0.1579 H     1     AAC1    0.1047
@<TRIPOS>BOND
     1     1     2    2 
     2     2     3    am
     3     2    18    1 
     4     3     4    am
     5     3    19    1 
     6     4     5    2 
     7     4    20    1 
     8     5     6    1 
     9     5    21    1 
    10     6     7    ar
    11     6    18    ar
    12     7     8    1 
    13     7    15    ar
    14     8     9    1 
    15     8    22    1 
    16     9    10    1 
    17     9    14    1 
    18     9    23    1 
    19    10    11    1 
    20    10    24    1 
    21    10    25    1 
    22    11    12    1 
    23    11    26    1 
    24    11    27    1 
    25    12    13    1 
    26    12    28    1 
    27    12    29    1 
    28    13    14    1 
    29    13    30    1 
    30    13    31    1 
    31    14    32    1 
    32    14    33    1 
    33    15    16    ar
    34    16    17    ar
    35    16    34    1 
    36    17    18    ar
@<TRIPOS>MOLECULE
Molecule ligands12_3.mol2
    11     0
SMALL
NO_CHARGES
@<TRIPOS>ATOM
      1 DON        -2.1284    4.5844    0.0221 HB    0     HB      0.0000
      2 DON        -2.5142   -0.5575    0.3726 HB    1     HB      0.0000
      3 ACC         0.0804    4.8667   -0.0587 HB    2     HB      0.0000
      4 ACC        -0.3340   -0.0279    0.2396 HB    3     HB      0.0000
      5 ACC         0.5592    2.1042    0.0901 HB    4     HB      0.0000
      6 AR         -1.9599    3.2261    0.0948 AR    5     AR      0.0000
      7 AR         -0.5165    1.2949    0.1663 AR    6     AR      0.0000
      8 HYD        -4.8794   -1.8024   -1.1908 HYD   7     HYD     0.0000
      9 HYD        -6.0566   -1.9028   -0.7849 HYD   8     HYD     0.0000
     10 HYD        -6.3872   -1.3904    0.3053 HYD   9     HYD     0.0000
     11 HYD        -5.5407   -0.7775    0.9897 HYD   10    HYD     0.0000
@<TRIPOS>BOND
@<TRIPOS>MOLECULE
ligands12_4.mol2
    39    41
SMALL
NO_CHARGES
@<TRIPOS>ATOM
      1 N1         -2.5229    4.5444   -0.0010 N.pl3 1     BBB1   -0.2849
      2 C1         -1.9735    3.2762    0.0709 C.ar  1     BBB1    0.1344
      3 N2         -0.6558    3.1039    0.0514 N.ar  1     BBB1   -0.2221
      4 C2         -0.1228    1.8977    0.1195 C.ar  1     BBB1    0.1197
      5 N3         -0.8534    0.8063    0.2091 N.ar  1     BBB1   -0.2213
      6 C3         -2.1800    0.8797    0.2354 C.ar  1     BBB1    0.1468
      7 C4         -2.7957    2.1413    0.1719 C.ar  1     BBB1    0.1382
      8 N4         -4.1339    1.9349    0.2157 N.ar  1     BBB1   -0.2370
      9 C5         -4.3729    0.6585    0.3000 C.ar  1     BBB1    0.0807
     10 N5         -3.1993   -0.0348    0.3202 N.ar  1     BBB1   -0.1874
     11 C6         -3.1955   -1.7537    0.2868 C.3   1     BBB1    0.1509
     12 O1         -2.5090   -2.2017   -0.9022 O.3   1     BBB1   -0.3492
     13 C7         -3.1275   -3.4604   -1.2473 C.3   1     BBB1    0.1180
     14 C8         -2.8723   -3.7935   -2.7186 C.3   1     BBB1    0.0719
     15 O2         -1.4781   -4.0355   -2.9173 O.3   1     BBB1   -0.5520
     16 P1         -1.2831   -4.3780   -4.4784 P.3   1     BBB1    0.4714
     17 O3         -2.1705   -5.5022   -4.8514 O.2   1     BBB1   -0.3864
     18 O4         -1.6550   -3.0846   -5.3621 O.2   1     BBB1   -0.3864
     19 O5          0.2492   -4.7909   -4.7498 O.3   1     BBB1   -0.4589
     20 P2          0.2924   -5.4930   -6.1980 P.3   1     BBB1    0.3343
     21 O6         -0.5053   -4.6960   -7.1567 O.co2 1     BBB1   -0.7433
     22 O7          1.8170   -5.5773   -6.7084 O.co2 1     BBB1   -0.7433
     23 O8         -0.3214   -6.9777   -6.0932 O.co2 1     BBB1   -0.7433
     24 C9         -4.6360   -3.2406   -0.9969 C.3   1     BBB1    0.1139
     25 O9         -5.2321   -4.4235   -0.4609 O.3   1     BBB1   -0.3864
     26 C10        -4.6823   -2.0923    0.0384 C.3   1     BBB1    0.1238
     27 O10        -5.3108   -2.5307    1.2445 O.3   1     BBB1   -0.3852
     28 H11        -3.5342    4.6767    0.0140 H     1     BBB1    0.1254
     29 H12        -2.1543    5.0040   -0.8336 H     1     BBB1    0.1254
     30 H2          0.9758    1.8011    0.1005 H     1     BBB1    0.1048
     31 H5         -5.3770    0.2044    0.3480 H     1     BBB1    0.0967
     32 H6         -2.8175   -2.3002    1.1822 H     1     BBB1    0.0804
     33 H7         -2.7403   -4.2754   -0.5922 H     1     BBB1    0.0656
     34 H81        -3.2651   -3.0059   -3.4033 H     1     BBB1    0.0670
     35 H82        -3.4145   -4.7403   -2.9484 H     1     BBB1    0.0670
     36 H9         -5.1485   -2.9376   -1.9397 H     1     BBB1    0.0648
     37 H9         -6.1597   -4.2884   -0.3070 H     1     BBB1    0.2100
     38 H10        -5.2183   -1.2096   -0.3820 H     1     BBB1    0.0660
     39 H10        -5.3392   -1.8255    1.8804 H     1     BBB1    0.2101
@<TRIPOS>BOND
     1     1     2    1 
     2     1    28    1 
     3     1    29    1 
     4     2     3    ar
     5     2     7    ar
     6     3     4    ar
     7     4     5    ar
     8     4    30    1 
     9     5     6    ar
    10     6     7    ar
    11     6    10    ar
    12     7     8    ar
    13     8     9    ar
    14     9    10    ar
    15     9    31    1 
    16    10    11    1 
    17    11    12    1 
    18    11    26    1 
    19    11    32    1 
    20    12    13    1 
    21    13    14    1 
    22    13    24    1 
    23    13    33    1 
    24    14    15    1 
    25    14    34    1 
    26    14    35    1 
    27    15    16    1 
    28    16    17    1 
    29    16    18    1 
    30    16    19    1 
    31    19    20    1 
    32    20    21    1 
    33    20    22    1 
    34    20    23    1 
    35    24    25    1 
    36    24    26    1 
    37    24    36    1 
    38    25    37    1 
    39    26    27    1 
    40    26    38    1 
    41    27    39    1 
@<TRIPOS>MOLECULE
Molecule ligands12_4.mol2
    17     0
SMALL
NO_CHARGES
@<TRIPOS>ATOM
      1 DON        -2.5229    4.5444   -0.0010 HB    0     HB      0.0000
      2 DON        -5.2321   -4.4235   -0.4609 HB    1     HB      0.0000
      3 DON        -5.3108   -2.5307    1.2445 HB    2     HB      0.0000
      4 ACC        -0.6558    3.1039    0.0514 HB    3     HB      0.0000
      5 ACC        -0.8534    0.8063    0.2091 HB    4     HB      0.0000
      6 ACC        -4.1339    1.9349    0.2157 HB    5     HB      0.0000
      7 ACC        -2.5090   -2.2017   -0.9022 HB    6     HB      0.0000
      8 ACC        -1.4781   -4.0355   -2.9173 HB    7     HB      0.0000
      9 ACC        -2.1705   -5.5022   -4.8514 HB    8     HB      0.0000
     10 ACC        -1.6550   -3.0846   -5.3621 HB    9     HB      0.0000
     11 ACC         0.2492   -4.7909   -4.7498 HB    10    HB      0.0000
     12 ACC        -5.2321   -4.4235   -0.4609 HB    11    HB      0.0000
     13 ACC        -5.3108   -2.5307    1.2445 HB    12    HB      0.0000
     14 CAT        -3.0238   -0.3093    0.4613 CHG   13    CHG    -0.1874
     15 ANI         0.2924   -5.4930   -6.1980 CHG   14    CHG     0.3343
     16 AR         -1.4302    2.0175    0.1431 AR    15    AR      0.0000
     17 AR         -3.3364    1.1159    0.2486 AR    16    AR      0.0000
@<TRIPOS>BOND
@<TRIPOS>MOLECULE
ligands12_6.mol2
    52    55
SMALL
NO_CHARGES
@<TRIPOS>ATOM
      1 C1         -3.8077   -1.8126   -0.2464 C.3   1     CCC1    0.0431
      2 O1         -2.5691   -1.4988    0.3934 O.3   1     CCC1   -0.3453
      3 C2         -2.4130   -0.1514    0.3078 C.ar  1     CCC1    0.1084
      4 C3         -3.5276    0.6737    0.2812 C.ar  1     CCC1    0.0068
      5 C4         -3.3739    2.0436    0.1937 C.ar  1     CCC1    0.1361
      6 F1         -4.4608    2.8456    0.1680 F     1     CCC1   -0.2047
      7 C5         -2.0926    2.5997    0.1324 C.ar  1     CCC1    0.0496
      8 C6         -2.0779    3.7774    0.0640 C.ar  1     CCC1    0.1235
      9 N1         -3.0046    4.7040    0.0314 N.ar  1     CCC1   -0.2380
     10 C7         -2.4212    5.9232   -0.0551 C.ar  1     CCC1    0.0851
     11 C8         -2.9216    7.2361   -0.1206 C.ar  1     CCC1    0.0576
     12 N2         -4.2914    7.4827   -0.1015 N.pl3 1     CCC1   -0.2852
     13 C9         -4.7674    7.3281   -1.4826 C.3   1     CCC1    0.0036
     14 C10        -6.2464    7.7123   -1.5584 C.3   1     CCC1   -0.0258
     15 C11        -6.7127    7.6720   -3.0169 C.3   1     CCC1   -0.0364
     16 C12        -8.2170    7.9454   -3.0720 C.3   1     CCC1   -0.0038
     17 N3         -8.9377    6.9063   -2.3287 N.3   1     CCC1   -0.3160
     18 C13        -8.5627    7.0397   -0.9170 C.3   1     CCC1   -0.0038
     19 C14        -7.0774    6.7165   -0.7433 C.3   1     CCC1   -0.0364
     20 C15        -2.0069    8.2807   -0.2043 C.ar  1     CCC1    0.0784
     21 Cl1        -2.5602    9.9241   -0.2874 Cl    1     CCC1   -0.0803
     22 C16        -0.6523    7.9989   -0.2204 C.ar  1     CCC1    0.0499
     23 N4         -0.2071    6.7594   -0.1584 N.ar  1     CCC1   -0.2333
     24 C17        -1.0313    5.7249   -0.0770 C.ar  1     CCC1    0.1742
     25 N5         -0.8392    4.3614    0.0052 N.ar  1     CCC1   -0.2140
     26 C18        -0.9718    1.7669    0.1598 C.ar  1     CCC1   -0.0162
     27 C19        -1.1336    0.3977    0.2526 C.ar  1     CCC1    0.1065
     28 O2         -0.0433   -0.4153    0.2798 O.3   1     CCC1   -0.3453
     29 C20         1.1052    0.4312    0.1977 C.3   1     CCC1    0.0431
     30 H11        -3.9358   -2.9180   -0.1761 H     1     CCC1    0.0529
     31 H12        -3.8724   -1.4283   -1.2911 H     1     CCC1    0.0529
     32 H13        -4.6258   -1.3366    0.3430 H     1     CCC1    0.0529
     33 H3         -4.5385    0.2352    0.3299 H     1     CCC1    0.0673
     34 H1         -4.0096    4.5332    0.0657 H     1     CCC1    0.1352
     35 H2         -4.8553    7.7240    0.7134 H     1     CCC1    0.1278
     36 H91        -4.5769    6.3047   -1.8820 H     1     CCC1    0.0430
     37 H92        -4.1996    8.0482   -2.1170 H     1     CCC1    0.0430
     38 H10        -6.3871    8.7399   -1.1491 H     1     CCC1    0.0314
     39 H111       -6.4373    6.7175   -3.5232 H     1     CCC1    0.0281
     40 H112       -6.1995    8.5009   -3.5580 H     1     CCC1    0.0281
     41 H121       -8.5871    8.0452   -4.1190 H     1     CCC1    0.0424
     42 H122       -8.4012    8.9166   -2.5562 H     1     CCC1    0.0424
     43 H3         -8.7773    5.9688   -2.6971 H     1     CCC1    0.1219
     44 H131       -9.2074    6.4197   -0.2513 H     1     CCC1    0.0424
     45 H132       -8.7103    8.1068   -0.6292 H     1     CCC1    0.0424
     46 H141       -6.8417    5.6576   -1.0012 H     1     CCC1    0.0281
     47 H142       -6.8234    6.8661    0.3320 H     1     CCC1    0.0281
     48 H16         0.0708    8.8293   -0.2866 H     1     CCC1    0.0846
     49 H18         0.0407    2.2013    0.1074 H     1     CCC1    0.0652
     50 H201        1.9988   -0.2352    0.2201 H     1     CCC1    0.0529
     51 H202        1.1261    1.2208    0.9846 H     1     CCC1    0.0529
     52 H203        1.0837    0.9393   -0.7945 H     1     CCC1    0.0529
@<TRIPOS>BOND
     1     1     2    1 
     2     1    30    1 
     3     1    31    1 
     4     1    32    1 
     5     2     3    1 
     6     3     4    ar
     7     3    27    ar
     8     4     5    ar
     9     4    33    1 
    10     5     6    1 
    11     5     7    ar
    12     7     8    1 
    13     7    26    ar
    14     8     9    ar
    15     8    25    ar
    16     9    10    ar
    17     9    34    1 
    18    10    11    ar
    19    10    24    ar
    20    11    12    1 
    21    11    20    ar
    22    12    13    1 
    23    12    35    1 
    24    13    14    1 
    25    13    36    1 
    26    13    37    1 
    27    14    15    1 
    28    14    19    1 
    29    14    38    1 
    30    15    16    1 
    31    15    39    1 
    32    15    40    1 
    33    16    17    1 
    34    16    41    1 
    35    16    42    1 
    36    17    18    1 
    37    17    43    1 
    38    18    19    1 
    39    18    44    1 
    40    18    45    1 
    41    19    46    1 
    42    19    47    1 
    43    20    21    1 
    44    20    22    ar
    45    22    23    ar
    46    22    48    1 
    47    23    24    ar
    48    24    25    ar
    49    26    27    ar
    50    26    49    1 
    51    27    28    1 
    52    28    29    1 
    53    29    50    1 
    54    29    51    1 
    55    29    52    1 
@<TRIPOS>MOLECULE
Molecule ligands12_6.mol2
    16     0
SMALL
NO_CHARGES
@<TRIPOS>ATOM
      1 DON        -3.0046    4.7040    0.0314 HB    0     HB      0.0000
      2 DON        -4.2914    7.4827   -0.1015 HB    1     HB      0.0000
      3 DON        -8.9377    6.9063   -2.3287 HB    2     HB      0.0000
      4 ACC        -2.5691   -1.4988    0.3934 HB    3     HB      0.0000
      5 ACC        -8.9377    6.9063   -2.3287 HB    4     HB      0.0000
      6 ACC        -0.2071    6.7594   -0.1584 HB    5     HB      0.0000
      7 ACC        -0.8392    4.3614    0.0052 HB    6     HB      0.0000
      8 ACC        -0.0433   -0.4153    0.2798 HB    7     HB      0.0000
      9 CAT        -3.0046    4.7040    0.0314 CHG   8     CHG    -0.2380
     10 AR         -2.2521    1.2217    0.2212 AR    9     AR      0.0000
     11 AR         -1.8748    4.8982   -0.0063 AR    10    AR      0.0000
     12 AR         -1.5401    6.9872   -0.1393 AR    11    AR      0.0000
     13 HYD        -6.4796    7.6922   -2.2877 HYD   12    HYD     0.0000
     14 HYD        -6.6619    7.2144   -1.1508 HYD   13    HYD     0.0000
     15 HYD        -3.8077   -1.8126   -0.2464 HYD   14    HYD     0.0000
     16 HYD         1.1052    0.4312    0.1977 HYD   15    HYD     0.0000
@<TRIPOS>BOND
@<TRIPOS>MOLECULE
ligands12_7.mol2
    64    67
SMALL
NO_CHARGES
@<TRIPOS>ATOM
      1 C1         -3.6850    1.2703    0.2618 C.3   1     CCD1   -0.0353
      2 C2         -2.2097    1.5724    0.2050 C.ar  1     CCD1    0.0046
      3 C3         -1.2781    0.5527    0.2387 C.ar  1     CCD1    0.0368
      4 N1          0.0116    0.8514    0.1872 N.ar  1     CCD1   -0.2252
      5 C4          0.4165    2.1103    0.1041 C.ar  1     CCD1    0.2074
      6 N2          1.7740    2.3811    0.0523 N.pl3 1     CCD1   -0.2265
      7 C5          2.6934    1.3313   -0.0339 C.ar  1     CCD1    0.0231
      8 C6          4.0495    1.5810    0.1231 C.ar  1     CCD1   -0.0255
      9 C7          4.9587    0.5363    0.0368 C.ar  1     CCD1    0.0192
     10 N3          6.3243    0.7830    0.1946 N.pl3 1     CCD1   -0.2717
     11 C8          6.4675    2.2241    0.4355 C.3   1     CCD1    0.0165
     12 C9          7.9508    2.5902    0.4970 C.3   1     CCD1    0.0118
     13 N4          8.5828    2.3096   -0.7980 N.3   1     CCD1   -0.3029
     14 C10        10.0191    2.5692   -0.6319 C.3   1     CCD1   -0.0127
     15 C11         8.4395    0.8685   -1.0389 C.3   1     CCD1    0.0118
     16 C12         6.9562    0.5025   -1.1004 C.3   1     CCD1    0.0165
     17 C13         4.5087   -0.7561   -0.2068 C.ar  1     CCD1   -0.0480
     18 C14         3.1583   -1.0010   -0.3626 C.ar  1     CCD1   -0.0231
     19 S1          2.5922   -2.6408   -0.6712 S.O2  1     CCD1    2.3060
     20 C15         2.3086   -3.3004    0.9948 C.3   1     CCD1   -0.9802
     21 O1          1.3704   -2.4270   -1.3645 O.2   1     CCD1   -0.9602
     22 O2          3.7157   -3.2506   -1.2915 O.2   1     CCD1   -0.9602
     23 C16         2.2499    0.0362   -0.2714 C.ar  1     CCD1   -0.0478
     24 N5         -0.4443    3.1161    0.0688 N.ar  1     CCD1   -0.2051
     25 C17        -1.7534    2.8887    0.1113 C.ar  1     CCD1    0.1186
     26 N6         -2.6521    3.9437    0.0742 N.pl3 1     CCD1   -0.2426
     27 C18        -2.1837    5.2607    0.0560 C.ar  1     CCD1    0.0213
     28 C19        -1.0427    5.6036    0.7705 C.ar  1     CCD1   -0.0435
     29 C20        -0.5827    6.9055    0.7504 C.ar  1     CCD1   -0.0599
     30 C21        -1.2565    7.8674    0.0200 C.ar  1     CCD1   -0.0563
     31 C22        -2.3924    7.5294   -0.6922 C.ar  1     CCD1   -0.0207
     32 C23        -3.1230    8.5809   -1.4870 C.3   1     CCD1    0.0693
     33 O3         -2.5947    8.6277   -2.8139 O.3   1     CCD1   -0.3904
     34 C24        -2.8546    6.2279   -0.6809 C.ar  1     CCD1   -0.0382
     35 H11        -4.4370    2.0931    0.2345 H     1     CCD1    0.0279
     36 H12        -3.8788    0.6520    1.1692 H     1     CCD1    0.0279
     37 H13        -3.9045    0.6169   -0.6147 H     1     CCD1    0.0279
     38 H3         -1.6045   -0.4985    0.3079 H     1     CCD1    0.0834
     39 H2          2.1028    3.3463    0.0771 H     1     CCD1    0.1365
     40 H6          4.4039    2.6075    0.3160 H     1     CCD1    0.0649
     41 H81         5.9149    2.5550    1.3457 H     1     CCD1    0.0443
     42 H82         6.0255    2.7568   -0.4386 H     1     CCD1    0.0443
     43 H91         8.4746    2.0811    1.3394 H     1     CCD1    0.0439
     44 H92         8.0190    3.6890    0.6735 H     1     CCD1    0.0439
     45 H101       10.4992    2.3561   -1.6154 H     1     CCD1    0.0391
     46 H102       10.4743    2.0005    0.2123 H     1     CCD1    0.0391
     47 H103       10.1467    3.6562   -0.4187 H     1     CCD1    0.0391
     48 H111        8.9917    0.2596   -0.2856 H     1     CCD1    0.0439
     49 H112        8.8820    0.6490   -2.0385 H     1     CCD1    0.0439
     50 H121        6.7967   -0.5519   -1.4261 H     1     CCD1    0.0443
     51 H122        6.4774    1.1649   -1.8589 H     1     CCD1    0.0443
     52 H13         5.2309   -1.5870   -0.2756 H     1     CCD1    0.0626
     53 H151        1.9504   -4.3381    0.7996 H     1     CCD1    0.2108
     54 H152        1.6271   -2.6855    1.6277 H     1     CCD1    0.2108
     55 H153        3.2941   -3.3669    1.5122 H     1     CCD1    0.2108
     56 H16         1.1714   -0.1643   -0.3874 H     1     CCD1    0.0626
     57 H6         -3.6551    3.7590    0.0603 H     1     CCD1    0.1350
     58 H19        -0.5049    4.8369    1.3532 H     1     CCD1    0.0633
     59 H20         0.3231    7.1785    1.3175 H     1     CCD1    0.0618
     60 H21        -0.8869    8.9065    0.0056 H     1     CCD1    0.0621
     61 H231       -3.0995    9.5780   -0.9886 H     1     CCD1    0.0607
     62 H232       -4.1902    8.2663   -1.5606 H     1     CCD1    0.0607
     63 H3         -3.0553    9.2905   -3.3150 H     1     CCD1    0.2098
     64 H24        -3.7557    5.9570   -1.2566 H     1     CCD1    0.0637
@<TRIPOS>BOND
     1     1     2    1 
     2     1    35    1 
     3     1    36    1 
     4     1    37    1 
     5     2     3    ar
     6     2    25    ar
     7     3     4    ar
     8     3    38    1 
     9     4     5    ar
    10     5     6    1 
    11     5    24    ar
    12     6     7    1 
    13     6    39    1 
    14     7     8    ar
    15     7    23    ar
    16     8     9    ar
    17     8    40    1 
    18     9    10    1 
    19     9    17    ar
    20    10    11    1 
    21    10    16    1 
    22    11    12    1 
    23    11    41    1 
    24    11    42    1 
    25    12    13    1 
    26    12    43    1 
    27    12    44    1 
    28    13    14    1 
    29    13    15    1 
    30    14    45    1 
    31    14    46    1 
    32    14    47    1 
    33    15    16    1 
    34    15    48    1 
    35    15    49    1 
    36    16    50    1 
    37    16    51    1 
    38    17    18    ar
    39    17    52    1 
    40    18    19    1 
    41    18    23    ar
    42    19    20    1 
    43    19    21    2 
    44    19    22    2 
    45    20    53    1 
    46    20    54    1 
    47    20    55    1 
    48    23    56    1 
    49    24    25    ar
    50    25    26    1 
    51    26    27    1 
    52    26    57    1 
    53    27    28    ar
    54    27    34    ar
    55    28    29    ar
    56    28    58    1 
    57    29    30    ar
    58    29    59    1 
    59    30    31    ar
    60    30    60    1 
    61    31    32    1 
    62    31    34    ar
    63    32    33    1 
    64    32    61    1 
    65    32    62    1 
    66    33    63    1 
    67    34    64    1 
@<TRIPOS>MOLECULE
Molecule ligands12_7.mol2
    16     0
SMALL
NO_CHARGES
@<TRIPOS>ATOM
      1 DON         1.7740    2.3811    0.0523 HB    0     HB      0.0000
      2 DON        -2.6521    3.9437    0.0742 HB    1     HB      0.0000
      3 DON        -2.5947    8.6277   -2.8139 HB    2     HB      0.0000
      4 ACC         0.0116    0.8514    0.1872 HB    3     HB      0.0000
      5 ACC         8.5828    2.3096   -0.7980 HB    4     HB      0.0000
      6 ACC         1.3704   -2.4270   -1.3645 HB    5     HB      0.0000
      7 ACC         3.7157   -3.2506   -1.2915 HB    6     HB      0.0000
      8 ACC        -0.4443    3.1161    0.0688 HB    7     HB      0.0000
      9 ACC        -2.5947    8.6277   -2.8139 HB    8     HB      0.0000
     10 AR         -0.8762    1.8486    0.1525 AR    9     AR      0.0000
     11 AR          3.6031    0.2879   -0.1191 AR    10    AR      0.0000
     12 AR         -1.7188    6.5657    0.0373 AR    11    AR      0.0000
     13 HYD        -2.9474    1.4213    0.2334 HYD   12    HYD     0.0000
     14 HYD        -3.6850    1.2703    0.2618 HYD   13    HYD     0.0000
     15 HYD        10.0191    2.5692   -0.6319 HYD   14    HYD     0.0000
     16 HYD         2.3086   -3.3004    0.9948 HYD   15    HYD     0.0000
@<TRIPOS>BOND
@<TRIPOS>MOLECULE
ligands12_8.mol2
    46    50
SMALL
NO_CHARGES
@<TRIPOS>ATOM
      1 C1         -0.7637    4.9807   -0.6724 C.3   1     CCE1   -0.0681
      2 S1         -2.0288    5.5065    0.5165 S.O2  1     CCE1    0.0000
      3 O1         -1.9354    4.7819    1.7352 O.2   1     CCE1   -1.0000
      4 O2         -2.2215    6.9141    0.4877 O.2   1     CCE1   -1.0000
      5 N1         -3.4325    4.9301   -0.1467 N.3   1     CCE1   -0.2494
      6 C2         -3.6123    3.4896   -0.3433 C.3   1     CCE1    0.0638
      7 C3         -2.2856    2.7920   -0.1885 C.ar  1     CCE1    0.1066
      8 N2         -1.1240    3.3463   -0.3790 N.ar  1     CCE1   -0.2355
      9 C4         -0.1434    2.4357   -0.1531 C.ar  1     CCE1    0.1023
     10 C5          1.2545    2.4718   -0.2056 C.ar  1     CCE1    0.0564
     11 N3          1.9717    1.4072    0.0710 N.ar  1     CCE1   -0.2406
     12 C6          1.4206    0.2449    0.4135 C.ar  1     CCE1    0.1193
     13 N4          1.9520   -0.9807    0.7401 N.ar  1     CCE1   -0.2489
     14 C7          0.9480   -1.8677    1.0189 C.ar  1     CCE1   -0.0154
     15 C8         -0.2435   -1.2623    0.8860 C.ar  1     CCE1   -0.0391
     16 C9          0.0238    0.1204    0.4911 C.ar  1     CCE1    0.0332
     17 C10        -0.7776    1.2339    0.2030 C.ar  1     CCE1    0.0612
     18 N5         -2.1255    1.4899    0.1772 N.ar  1     CCE1   -0.2253
     19 C11        -3.2899    0.1984    0.2725 C.3   1     CCE1    0.0243
     20 C12        -2.5985   -1.1179   -0.1504 C.3   1     CCE1   -0.0335
     21 C13        -3.5296   -1.7170   -1.2484 C.3   1     CCE1   -0.0393
     22 C14        -4.7951   -2.1915   -0.4708 C.3   1     CCE1   -0.0499
     23 C15        -5.4971   -0.8857   -0.0329 C.3   1     CCE1   -0.0485
     24 C16        -4.5750    0.2723   -0.6073 C.3   1     CCE1   -0.0244
     25 C17        -4.0572   -0.4048   -1.9290 C.3   1     CCE1   -0.0459
     26 H11        -0.8369    5.5493   -1.6288 H     1     CCE1    0.0227
     27 H12        -0.8031    3.8804   -0.8488 H     1     CCE1    0.0227
     28 H13         0.2308    5.2104   -0.2238 H     1     CCE1    0.0227
     29 H1         -2.5679    5.2851    0.2618 H     1     CCE1    0.1410
     30 H21        -4.3363    3.2000    0.4537 H     1     CCE1    0.0513
     31 H22        -3.4294    4.5856   -0.2497 H     1     CCE1    0.0513
     32 H5          1.7625    3.4105   -0.4839 H     1     CCE1    0.0852
     33 H4          2.9483   -1.1968    0.7700 H     1     CCE1    0.1345
     34 H7          1.0951   -2.9216    1.3091 H     1     CCE1    0.0746
     35 H8         -1.2343   -1.7204    1.0445 H     1     CCE1    0.0635
     36 H11        -3.5607    0.1649    1.3536 H     1     CCE1    0.0473
     37 H121       -2.3888   -1.8129    0.6959 H     1     CCE1    0.0283
     38 H122       -1.6262   -0.8567   -0.6295 H     1     CCE1    0.0283
     39 H13        -3.0637   -2.4675   -1.9287 H     1     CCE1    0.0301
     40 H141       -4.5763   -2.8927    0.3679 H     1     CCE1    0.0268
     41 H142       -5.4646   -2.7164   -1.1916 H     1     CCE1    0.0268
     42 H151       -5.6856   -0.8159    1.0639 H     1     CCE1    0.0269
     43 H152       -6.4810   -0.8326   -0.5548 H     1     CCE1    0.0269
     44 H16        -5.0470    1.2767   -0.7150 H     1     CCE1    0.0316
     45 H171       -3.3384    0.1738   -2.5549 H     1     CCE1    0.0271
     46 H172       -4.9396   -0.6662   -2.5585 H     1     CCE1    0.0271
@<TRIPOS>BOND
     1     1     2    1 
     2     1    26    1 
     3     1    27    1 
     4     1    28    1 
     5     2     3    2 
     6     2     4    2 
     7     2     5    1 
     8     5     6    1 
     9     5    29    1 
    10     6     7    1 
    11     6    30    1 
    12     6    31    1 
    13     7     8    ar
    14     7    18    ar
    15     8     9    ar
    16     9    10    ar
    17     9    17    ar
    18    10    11    ar
    19    10    32    1 
    20    11    12    ar
    21    12    13    ar
    22    12    16    ar
    23    13    14    ar
    24    13    33    1 
    25    14    15    ar
    26    14    34    1 
    27    15    16    ar
    28    15    35    1 
    29    16    17    ar
    30    17    18    ar
    31    18    19    1 
    32    19    20    1 
    33    19    24    1 
    34    19    36    1 
    35    20    21    1 
    36    20    37    1 
    37    20    38    1 
    38    21    22    1 
    39    21    25    1 
    40    21    39    1 
    41    22    23    1 
    42    22    40    1 
    43    22    41    1 
    44    23    24    1 
    45    23    42    1 
    46    23    43    1 
    47    24    25    1 
    48    24    44    1 
    49    25    45    1 
    50    25    46    1 
@<TRIPOS>MOLECULE
Molecule ligands12_8.mol2
    19     0
SMALL
NO_CHARGES
@<TRIPOS>ATOM
      1 DON        -3.4325    4.9301   -0.1467 HB    0     HB      0.0000
      2 DON         1.9520   -0.9807    0.7401 HB    1     HB      0.0000
      3 ACC        -1.9354    4.7819    1.7352 HB    2     HB      0.0000
      4 ACC        -2.2215    6.9141    0.4877 HB    3     HB      0.0000
      5 ACC        -3.4325    4.9301   -0.1467 HB    4     HB      0.0000
      6 ACC        -1.1240    3.3463   -0.3790 HB    5     HB      0.0000
      7 ACC         1.9717    1.4072    0.0710 HB    6     HB      0.0000
      8 CAT         1.9520   -0.9807    0.7401 CHG   7     CHG    -0.2489
      9 CAT        -2.4179    1.3437    0.0002 CHG   8     CHG    -0.2253
     10 AR         -1.2912    2.2595   -0.0681 AR    9     AR      0.0000
     11 AR          0.6249    1.3190    0.1366 AR    10    AR      0.0000
     12 AR          0.8202   -0.7491    0.7099 AR    11    AR      0.0000
     13 HYD        -3.0641   -1.4174   -0.6994 HYD   12    HYD     0.0000
     14 HYD        -4.1624   -1.9542   -0.8596 HYD   13    HYD     0.0000
     15 HYD        -3.7934   -1.0609   -1.5887 HYD   14    HYD     0.0000
     16 HYD        -5.1461   -1.5386   -0.2518 HYD   15    HYD     0.0000
     17 HYD        -5.0360   -0.3067   -0.3201 HYD   16    HYD     0.0000
     18 HYD        -4.3161   -0.0662   -1.2682 HYD   17    HYD     0.0000
     19 HYD        -0.7637    4.9807   -0.6724 HYD   18    HYD     0.0000
@<TRIPOS>BOND
@<TRIPOS>MOLECULE
ligands12_9.mol2
    36    39
SMALL
NO_CHARGES
@<TRIPOS>ATOM
      1 C1          0.8642   -2.3542    0.3408 C.3   1     CCF1   -0.0113
      2 C2          0.3768   -0.9299    0.2726 C.ar  1     CCF1    0.0882
      3 N1          1.1435    0.1186    0.1947 N.ar  1     CCF1   -0.2371
      4 C3          0.3785    1.2385    0.1495 C.ar  1     CCF1    0.1023
      5 C4          0.6549    2.6077    0.0652 C.ar  1     CCF1    0.0564
      6 N2         -0.3128    3.4950    0.0387 N.ar  1     CCF1   -0.2406
      7 C5         -1.5977    3.1509    0.0891 C.ar  1     CCF1    0.1193
      8 N3         -2.7619    3.8829    0.0768 N.ar  1     CCF1   -0.2489
      9 C6         -3.8423    3.0464    0.1505 C.ar  1     CCF1   -0.0154
     10 C7         -3.4264    1.7708    0.2119 C.ar  1     CCF1   -0.0391
     11 C8         -1.9645    1.7980    0.1743 C.ar  1     CCF1    0.0332
     12 C9         -0.9611    0.8196    0.2056 C.ar  1     CCF1    0.0612
     13 N4         -0.9311   -0.5504    0.2774 N.ar  1     CCF1   -0.2268
     14 C10        -2.0923   -1.4409    0.3478 C.3   1     CCF1    0.0235
     15 C11        -2.4717   -1.6741    1.8134 C.3   1     CCF1   -0.0239
     16 C12        -3.7513   -2.5105    1.8749 C.3   1     CCF1   -0.0027
     17 N5         -4.8488   -1.7871    1.2241 N.3   1     CCF1   -0.3159
     18 C13        -4.5155   -1.6778   -0.2002 C.3   1     CCF1   -0.0027
     19 C14        -3.2781   -0.7955   -0.3760 C.3   1     CCF1   -0.0239
     20 H11         0.2072   -3.2526    0.4076 H     1     CCF1    0.0303
     21 H12         1.5725   -2.4101    1.2001 H     1     CCF1    0.0303
     22 H13         1.4863   -2.5035   -0.5723 H     1     CCF1    0.0303
     23 H4          1.7033    2.9475    0.0201 H     1     CCF1    0.0852
     24 H3         -2.8126    4.9001    0.0209 H     1     CCF1    0.1345
     25 H6         -4.8965    3.3710    0.1584 H     1     CCF1    0.0746
     26 H7         -4.0653    0.8741    0.2781 H     1     CCF1    0.0635
     27 H10        -1.8457   -2.4156   -0.1343 H     1     CCF1    0.0471
     28 H111       -2.5615   -0.7206    2.3843 H     1     CCF1    0.0293
     29 H112       -1.6553   -2.2719    2.2819 H     1     CCF1    0.0293
     30 H121       -4.0068   -2.8101    2.9181 H     1     CCF1    0.0424
     31 H122       -3.5713   -3.4437    1.2917 H     1     CCF1    0.0424
     32 H5         -5.0446   -0.8852    1.6582 H     1     CCF1    0.1219
     33 H131       -5.3785   -1.3155   -0.8061 H     1     CCF1    0.0424
     34 H132       -4.2547   -2.6991   -0.5638 H     1     CCF1    0.0424
     35 H141       -3.4560    0.2541   -0.0442 H     1     CCF1    0.0293
     36 H142       -3.0350   -0.7686   -1.4638 H     1     CCF1    0.0293
@<TRIPOS>BOND
     1     1     2    1 
     2     1    20    1 
     3     1    21    1 
     4     1    22    1 
     5     2     3    ar
     6     2    13    ar
     7     3     4    ar
     8     4     5    ar
     9     4    12    ar
    10     5     6    ar
    11     5    23    1 
    12     6     7    ar
    13     7     8    ar
    14     7    11    ar
    15     8     9    ar
    16     8    24    1 
    17     9    10    ar
    18     9    25    1 
    19    10    11    ar
    20    10    26    1 
    21    11    12    ar
    22    12    13    ar
    23    13    14    1 
    24    14    15    1 
    25    14    19    1 
    26    14    27    1 
    27    15    16    1 
    28    15    28    1 
    29    15    29    1 
    30    16    17    1 
    31    16    30    1 
    32    16    31    1 
    33    17    18    1 
    34    17    32    1 
    35    18    19    1 
    36    18    33    1 
    37    18    34    1 
    38    19    35    1 
    39    19    36    1 
@<TRIPOS>MOLECULE
Molecule ligands12_9.mol2
    11     0
SMALL
NO_CHARGES
@<TRIPOS>ATOM
      1 DON        -2.7619    3.8829    0.0768 HB    0     HB      0.0000
      2 DON        -4.8488   -1.7871    1.2241 HB    1     HB      0.0000
      3 ACC         1.1435    0.1186    0.1947 HB    2     HB      0.0000
      4 ACC        -0.3128    3.4950    0.0387 HB    3     HB      0.0000
      5 ACC        -4.8488   -1.7871    1.2241 HB    4     HB      0.0000
      6 CAT        -2.7619    3.8829    0.0768 CHG   5     CHG    -0.2489
      7 CAT        -0.9311   -0.5504    0.2774 CHG   6     CHG    -0.2268
      8 AR          0.0013    0.1393    0.2199 AR    7     AR      0.0000
      9 AR         -0.6338    2.1850    0.1204 AR    8     AR      0.0000
     10 AR         -2.7186    2.7298    0.1405 AR    9     AR      0.0000
     11 HYD         0.8642   -2.3542    0.3408 HYD   10    HYD     0.0000
@<TRIPOS>BOND
@<TRIPOS>MOLECULE
ligands12_10.mol2
    56    60
SMALL
NO_CHARGES
@<TRIPOS>ATOM
      1 C1         -7.8691    0.2994   -2.5290 C.3   1     CCG1   -0.0497
      2 C2         -8.9166    0.4537   -1.4247 C.3   1     CCG1    0.0055
      3 C3        -10.2989    0.6357   -2.0547 C.3   1     CCG1   -0.0497
      4 N1         -8.9180   -0.7480   -0.5798 N.3   1     CCG1   -0.2893
      5 C4         -9.9309   -0.5250    0.4747 C.3   1     CCG1   -0.0001
      6 C5         -9.3346   -1.0528    1.7927 C.3   1     CCG1   -0.0383
      7 C6         -7.9197   -1.5546    1.4235 C.3   1     CCG1   -0.0279
      8 C7         -7.6073   -0.7804    0.1183 C.3   1     CCG1    0.0845
      9 C8         -6.5809   -1.5164   -0.7039 C.2   1     CCG1    0.2205
     10 O1         -6.8632   -1.9092   -1.8161 O.2   1     CCG1   -0.2776
     11 N2         -5.3493   -1.7379   -0.2033 N.am  1     CCG1   -0.2430
     12 C9         -4.3380   -2.4539   -0.9928 C.3   1     CCG1    0.0077
     13 C10        -3.0702   -1.5969   -1.0637 C.3   1     CCG1   -0.0233
     14 C11        -2.6219   -1.2382    0.3549 C.3   1     CCG1    0.0233
     15 N3         -1.3910   -0.4463    0.2921 N.ar  1     CCG1   -0.2293
     16 C12        -0.1186   -0.9317    0.3020 C.ar  1     CCG1    0.0775
     17 N4          0.7324    0.0502    0.2328 N.ar  1     CCG1   -0.2403
     18 C13         0.0623    1.2288    0.1741 C.ar  1     CCG1    0.1020
     19 C14         0.4511    2.5704    0.0906 C.ar  1     CCG1    0.0563
     20 N5         -0.4403    3.5338    0.0476 N.ar  1     CCG1   -0.2406
     21 C15        -1.7497    3.2962    0.0802 C.ar  1     CCG1    0.1193
     22 N6         -2.8497    4.1210    0.0482 N.ar  1     CCG1   -0.2489
     23 C16        -3.9960    3.3759    0.1080 C.ar  1     CCG1   -0.0154
     24 C17        -3.6869    2.0710    0.1792 C.ar  1     CCG1   -0.0391
     25 C18        -2.2272    1.9781    0.1635 C.ar  1     CCG1    0.0331
     26 C19        -1.3079    0.9206    0.2064 C.ar  1     CCG1    0.0610
     27 C20        -3.7173   -0.4240    1.0473 C.3   1     CCG1   -0.0233
     28 C21        -4.9906   -1.2628    1.1399 C.3   1     CCG1    0.0077
     29 H11        -6.8617    0.1668   -2.0699 H     1     CCG1    0.0245
     30 H12        -7.8935    1.1460   -3.2543 H     1     CCG1    0.0245
     31 H13        -8.1080   -0.6329   -3.0918 H     1     CCG1    0.0245
     32 H2         -8.6716    1.3456   -0.8020 H     1     CCG1    0.0457
     33 H31       -11.0624    0.7481   -1.2499 H     1     CCG1    0.0245
     34 H32       -10.5512   -0.1880   -2.7628 H     1     CCG1    0.0245
     35 H33       -10.2810    1.5864   -2.6369 H     1     CCG1    0.0245
     36 H41       -10.9219   -0.9745    0.2317 H     1     CCG1    0.0427
     37 H42       -10.0737    0.5756    0.5823 H     1     CCG1    0.0427
     38 H51        -9.9670   -1.8194    2.2983 H     1     CCG1    0.0278
     39 H52        -9.2214   -0.1887    2.4881 H     1     CCG1    0.0278
     40 H61        -7.8249   -2.6626    1.3419 H     1     CCG1    0.0285
     41 H62        -7.2123   -1.2042    2.2109 H     1     CCG1    0.0285
     42 H7         -7.2588    0.2535    0.3484 H     1     CCG1    0.0555
     43 H91        -4.7127   -2.7447   -2.0019 H     1     CCG1    0.0432
     44 H92        -4.0824   -3.3906   -0.4446 H     1     CCG1    0.0432
     45 H101       -3.2053   -0.6948   -1.7050 H     1     CCG1    0.0293
     46 H102       -2.2678   -2.2199   -1.5232 H     1     CCG1    0.0293
     47 H11        -3.5039   -0.5565    0.3284 H     1     CCG1    0.0471
     48 H12         0.1508   -1.9997    0.3602 H     1     CCG1    0.0966
     49 H14         1.5244    2.8231    0.0603 H     1     CCG1    0.0852
     50 H6         -2.8160    5.1386   -0.0113 H     1     CCG1    0.1345
     51 H16        -5.0200    3.7856    0.0991 H     1     CCG1    0.0746
     52 H17        -4.3979    1.2298    0.2382 H     1     CCG1    0.0635
     53 H201       -3.8936    0.5571    0.5476 H     1     CCG1    0.0293
     54 H202       -3.3750   -0.2152    2.0878 H     1     CCG1    0.0293
     55 H211       -5.8260   -0.7132    1.6330 H     1     CCG1    0.0432
     56 H212       -4.7605   -2.1576    1.7641 H     1     CCG1    0.0432
@<TRIPOS>BOND
     1     1     2    1 
     2     1    29    1 
     3     1    30    1 
     4     1    31    1 
     5     2     3    1 
     6     2     4    1 
     7     2    32    1 
     8     3    33    1 
     9     3    34    1 
    10     3    35    1 
    11     4     5    1 
    12     4     8    1 
    13     5     6    1 
    14     5    36    1 
    15     5    37    1 
    16     6     7    1 
    17     6    38    1 
    18     6    39    1 
    19     7     8    1 
    20     7    40    1 
    21     7    41    1 
    22     8     9    1 
    23     8    42    1 
    24     9    10    2 
    25     9    11    am
    26    11    12    1 
    27    11    28    1 
    28    12    13    1 
    29    12    43    1 
    30    12    44    1 
    31    13    14    1 
    32    13    45    1 
    33    13    46    1 
    34    14    15    1 
    35    14    27    1 
    36    14    47    1 
    37    15    16    ar
    38    15    26    ar
    39    16    17    ar
    40    16    48    1 
    41    17    18    ar
    42    18    19    ar
    43    18    26    ar
    44    19    20    ar
    45    19    49    1 
    46    20    21    ar
    47    21    22    ar
    48    21    25    ar
    49    22    23    ar
    50    22    50    1 
    51    23    24    ar
    52    23    51    1 
    53    24    25    ar
    54    24    52    1 
    55    25    26    ar
    56    27    28    1 
    57    27    53    1 
    58    27    54    1 
    59    28    55    1 
    60    28    56    1 
@<TRIPOS>MOLECULE
Molecule ligands12_10.mol2
    13     0
SMALL
NO_CHARGES
@<TRIPOS>ATOM
      1 DON        -2.8497    4.1210    0.0482 HB    0     HB      0.0000
      2 ACC        -8.9180   -0.7480   -0.5798 HB    1     HB      0.0000
      3 ACC        -6.8632   -1.9092   -1.8161 HB    2     HB      0.0000
      4 ACC         0.7324    0.0502    0.2328 HB    3     HB      0.0000
      5 ACC        -0.4403    3.5338    0.0476 HB    4     HB      0.0000
      6 CAT        -1.3910   -0.4463    0.2921 CHG   5     CHG    -0.2293
      7 CAT        -2.8497    4.1210    0.0482 CHG   6     CHG    -0.2489
      8 AR         -0.4045    0.1643    0.2415 AR    7     AR      0.0000
      9 AR         -0.8686    2.2546    0.1271 AR    8     AR      0.0000
     10 AR         -2.9019    2.9684    0.1158 AR    9     AR      0.0000
     11 HYD        -8.6272   -1.3037    1.6081 HYD   10    HYD     0.0000
     12 HYD        -7.8691    0.2994   -2.5290 HYD   11    HYD     0.0000
     13 HYD       -10.2989    0.6357   -2.0547 HYD   12    HYD     0.0000
@<TRIPOS>BOND
@<TRIPOS>MOLECULE
ligands12_11.mol2
    42    45
SMALL
NO_CHARGES
@<TRIPOS>ATOM
      1 C1         -2.2448   -2.6208   -0.3969 C.3   1     CCH1   -0.0458
      2 C2         -2.5331   -1.3264    0.3662 C.3   1     CCH1    0.0318
      3 N1         -1.3638   -0.4467    0.2941 N.ar  1     CCH1   -0.2265
      4 C3         -0.0593   -0.8381    0.2936 C.ar  1     CCH1    0.0778
      5 N2          0.7171    0.2034    0.2184 N.ar  1     CCH1   -0.2403
      6 C4         -0.0377    1.3300    0.1659 C.ar  1     CCH1    0.1020
      7 C5          0.2514    2.6965    0.0805 C.ar  1     CCH1    0.0563
      8 N3         -0.7081    3.5922    0.0453 N.ar  1     CCH1   -0.2406
      9 C6         -1.9964    3.2597    0.0882 C.ar  1     CCH1    0.1193
     10 N4         -3.1539    4.0019    0.0656 N.ar  1     CCH1   -0.2489
     11 C7         -4.2422    3.1752    0.1338 C.ar  1     CCH1   -0.0154
     12 C8         -3.8382    1.8963    0.2015 C.ar  1     CCH1   -0.0391
     13 C9         -2.3758    1.9101    0.1742 C.ar  1     CCH1    0.0332
     14 C10        -1.3814    0.9226    0.2089 C.ar  1     CCH1    0.0612
     15 C11        -3.7395   -0.6232   -0.2600 C.3   1     CCH1   -0.0198
     16 C12        -4.0037    0.6892    0.4846 C.3   1     CCH1    0.0157
     17 N5         -4.1513    0.3986    1.9173 N.3   1     CCH1   -0.2402
     18 S1         -5.4898    0.9085    2.7482 S.O2  1     CCH1    0.0000
     19 C13        -6.6439   -0.4788    2.5639 C.3   1     CCH1   -0.0681
     20 O1         -5.0106    1.0174    4.0815 O.2   1     CCH1   -1.0000
     21 O2         -5.9108    2.0423    2.0021 O.2   1     CCH1   -1.0000
     22 C14        -3.0887   -0.3533    2.5986 C.3   1     CCH1    0.0157
     23 C15        -2.8350   -1.6541    1.8303 C.3   1     CCH1   -0.0198
     24 H11        -3.1348   -3.2903   -0.3420 H     1     CCH1    0.0248
     25 H12        -1.3164   -3.1236   -0.0385 H     1     CCH1    0.0248
     26 H13        -2.0905   -2.3530   -1.4681 H     1     CCH1    0.0248
     27 H3          0.2878   -1.8835    0.3487 H     1     CCH1    0.0966
     28 H5          1.3031    3.0268    0.0420 H     1     CCH1    0.0852
     29 H4         -3.1952    5.0194    0.0068 H     1     CCH1    0.1345
     30 H7         -5.2935    3.5092    0.1333 H     1     CCH1    0.0746
     31 H8         -4.4854    1.0055    0.2655 H     1     CCH1    0.0635
     32 H111       -4.6406   -1.2791   -0.2930 H     1     CCH1    0.0296
     33 H112       -3.4713   -0.3661   -1.3113 H     1     CCH1    0.0296
     34 H121       -4.8768    1.2457    0.0706 H     1     CCH1    0.0441
     35 H122       -3.1028    1.3345    0.3619 H     1     CCH1    0.0441
     36 H131       -7.5451   -0.1355    3.1234 H     1     CCH1    0.0227
     37 H132       -6.2407   -1.4648    2.8933 H     1     CCH1    0.0227
     38 H133       -6.9168   -0.5601    1.4859 H     1     CCH1    0.0227
     39 H141       -3.3164   -0.5319    3.6755 H     1     CCH1    0.0441
     40 H142       -2.1568    0.2567    2.5471 H     1     CCH1    0.0441
     41 H151       -3.6761   -2.3784    1.9363 H     1     CCH1    0.0296
     42 H152       -1.9244   -2.1294    2.2639 H     1     CCH1    0.0296
@<TRIPOS>BOND
     1     1     2    1 
     2     1    24    1 
     3     1    25    1 
     4     1    26    1 
     5     2     3    1 
     6     2    15    1 
     7     2    23    1 
     8     3     4    ar
     9     3    14    ar
    10     4     5    ar
    11     4    27    1 
    12     5     6    ar
    13     6     7    ar
    14     6    14    ar
    15     7     8    ar
    16     7    28    1 
    17     8     9    ar
    18     9    10    ar
    19     9    13    ar
    20    10    11    ar
    21    10    29    1 
    22    11    12    ar
    23    11    30    1 
    24    12    13    ar
    25    12    31    1 
    26    13    14    ar
    27    15    16    1 
    28    15    32    1 
    29    15    33    1 
    30    16    17    1 
    31    16    34    1 
    32    16    35    1 
    33    17    18    1 
    34    17    22    1 
    35    18    19    1 
    36    18    20    2 
    37    18    21    2 
    38    19    36    1 
    39    19    37    1 
    40    19    38    1 
    41    22    23    1 
    42    22    39    1 
    43    22    40    1 
    44    23    41    1 
    45    23    42    1 
@<TRIPOS>MOLECULE
Molecule ligands12_11.mol2
    13     0
SMALL
NO_CHARGES
@<TRIPOS>ATOM
      1 DON        -3.1539    4.0019    0.0656 HB    0     HB      0.0000
      2 ACC         0.7171    0.2034    0.2184 HB    1     HB      0.0000
      3 ACC        -0.7081    3.5922    0.0453 HB    2     HB      0.0000
      4 ACC        -4.1513    0.3986    1.9173 HB    3     HB      0.0000
      5 ACC        -5.0106    1.0174    4.0815 HB    4     HB      0.0000
      6 ACC        -5.9108    2.0423    2.0021 HB    5     HB      0.0000
      7 CAT        -1.3638   -0.4467    0.2941 CHG   6     CHG    -0.2265
      8 CAT        -3.1539    4.0019    0.0656 CHG   7     CHG    -0.2489
      9 AR         -0.4251    0.2343    0.2362 AR    8     AR      0.0000
     10 AR         -1.0414    2.2852    0.1272 AR    9     AR      0.0000
     11 AR         -3.1213    2.8487    0.1327 AR    10    AR      0.0000
     12 HYD        -2.2448   -2.6208   -0.3969 HYD   11    HYD     0.0000
     13 HYD        -6.6439   -0.4788    2.5639 HYD   12    HYD     0.0000
@<TRIPOS>BOND
@<TRIPOS>MOLECULE
ligands12_12.mol2
    49    53
SMALL
NO_CHARGES
@<TRIPOS>ATOM
      1 C1         -1.0992    9.0512   -0.2705 C.3   1     CCI1    0.0136
      2 N1         -1.0471    7.5895   -0.1852 N.ar  1     CCI1   -0.1774
      3 C2         -2.1162    6.7540   -0.1091 C.ar  1     CCI1    0.0228
      4 C3         -1.6400    5.4845   -0.0464 C.ar  1     CCI1    0.0543
      5 N2         -2.4145    4.3119    0.0415 N.pl3 1     CCI1   -0.2243
      6 C4         -1.7945    3.0758    0.0987 C.ar  1     CCI1    0.2074
      7 N3         -0.4710    3.0147    0.0696 N.ar  1     CCI1   -0.2255
      8 C5          0.1583    1.8501    0.1229 C.ar  1     CCI1    0.0339
      9 C6         -0.5805    0.6861    0.2098 C.ar  1     CCI1   -0.0066
     10 C7         -1.9733    0.7816    0.2385 C.ar  1     CCI1    0.1142
     11 N4         -2.6759   -0.4906    0.3874 N.pl3 1     CCI1   -0.2556
     12 C8         -2.0032   -1.5922    1.0856 C.3   1     CCI1    0.0211
     13 C9         -2.9882   -2.7598    1.2594 C.3   1     CCI1    0.0311
     14 C10        -3.7125   -2.9639   -0.0932 C.3   1     CCI1   -0.0342
     15 C11        -4.9061   -1.9859   -0.0444 C.3   1     CCI1   -0.0342
     16 C12        -4.7816   -1.2902    1.3326 C.3   1     CCI1    0.0311
     17 C13        -3.8356   -0.0863    1.1905 C.3   1     CCI1    0.0211
     18 N5         -4.0521   -2.2903    2.1833 N.am  1     CCI1   -0.2355
     19 C14        -4.3097   -2.6627    3.4528 C.2   1     CCI1    0.2129
     20 O1         -5.2395   -2.1670    4.0533 O.2   1     CCI1   -0.2788
     21 C15        -3.4425   -3.6951    4.1258 C.3   1     CCI1    0.1012
     22 C16        -3.7852   -4.0739    5.5680 C.3   1     CCI1    0.0278
     23 C17        -2.5458   -3.2252    5.2731 C.3   1     CCI1    0.2606
     24 F1         -1.2958   -3.8384    5.4088 F     1     CCI1   -0.2048
     25 F2         -2.5941   -1.8701    5.6173 F     1     CCI1   -0.2048
     26 N6         -2.5388    1.9834    0.1867 N.ar  1     CCI1   -0.2055
     27 C18        -0.2396    5.5482   -0.0855 C.ar  1     CCI1    0.0616
     28 N7          0.1133    6.8050   -0.1740 N.ar  1     CCI1   -0.2001
     29 H11        -0.2221    9.7366   -0.3329 H     1     CCI1    0.0414
     30 H12        -1.7057    9.3953    0.5995 H     1     CCI1    0.0414
     31 H13        -1.7168    9.2751   -1.1713 H     1     CCI1    0.0414
     32 H2         -3.1778    7.0532   -0.0999 H     1     CCI1    0.0780
     33 H2         -3.4324    4.3735    0.0630 H     1     CCI1    0.1366
     34 H5          1.2603    1.8103    0.0981 H     1     CCI1    0.0831
     35 H6         -0.0815   -0.2965    0.2555 H     1     CCI1    0.0664
     36 H81        -1.5565   -1.2683    2.0545 H     1     CCI1    0.0446
     37 H82        -1.1718   -1.9470    0.4330 H     1     CCI1    0.0446
     38 H9         -2.4889   -3.6891    1.6205 H     1     CCI1    0.0480
     39 H101       -3.9989   -4.0213   -0.3008 H     1     CCI1    0.0281
     40 H102       -3.0259   -2.6281   -0.9050 H     1     CCI1    0.0281
     41 H111       -5.8960   -2.4669   -0.2232 H     1     CCI1    0.0281
     42 H112       -4.7510   -1.2146   -0.8345 H     1     CCI1    0.0281
     43 H12        -5.7720   -1.0075    1.7596 H     1     CCI1    0.0480
     44 H131       -3.5424    0.3442    2.1764 H     1     CCI1    0.0446
     45 H132       -4.3792    0.7056    0.6243 H     1     CCI1    0.0446
     46 H15        -3.0398   -4.5083    3.4780 H     1     CCI1    0.0452
     47 H161       -3.9754   -5.0307    6.1080 H     1     CCI1    0.0332
     48 H162       -4.5795   -3.3645    5.8981 H     1     CCI1    0.0332
     49 H18         0.4472    4.6859   -0.0480 H     1     CCI1    0.0859
@<TRIPOS>BOND
     1     1     2    1 
     2     1    29    1 
     3     1    30    1 
     4     1    31    1 
     5     2     3    ar
     6     2    28    ar
     7     3     4    ar
     8     3    32    1 
     9     4     5    1 
    10     4    27    ar
    11     5     6    1 
    12     5    33    1 
    13     6     7    ar
    14     6    26    ar
    15     7     8    ar
    16     8     9    ar
    17     8    34    1 
    18     9    10    ar
    19     9    35    1 
    20    10    11    1 
    21    10    26    ar
    22    11    12    1 
    23    11    17    1 
    24    12    13    1 
    25    12    36    1 
    26    12    37    1 
    27    13    14    1 
    28    13    18    1 
    29    13    38    1 
    30    14    15    1 
    31    14    39    1 
    32    14    40    1 
    33    15    16    1 
    34    15    41    1 
    35    15    42    1 
    36    16    17    1 
    37    16    18    1 
    38    16    43    1 
    39    17    44    1 
    40    17    45    1 
    41    18    19    am
    42    19    20    2 
    43    19    21    1 
    44    21    22    1 
    45    21    23    1 
    46    21    46    1 
    47    22    23    1 
    48    22    47    1 
    49    22    48    1 
    50    23    24    1 
    51    23    25    1 
    52    27    28    ar
    53    27    49    1 
@<TRIPOS>MOLECULE
Molecule ligands12_12.mol2
    10     0
SMALL
NO_CHARGES
@<TRIPOS>ATOM
      1 DON        -2.4145    4.3119    0.0415 HB    0     HB      0.0000
      2 ACC        -0.4710    3.0147    0.0696 HB    1     HB      0.0000
      3 ACC        -5.2395   -2.1670    4.0533 HB    2     HB      0.0000
      4 ACC        -2.5388    1.9834    0.1867 HB    3     HB      0.0000
      5 ACC         0.1133    6.8050   -0.1740 HB    4     HB      0.0000
      6 CAT        -1.0471    7.5895   -0.1852 CHG   5     CHG    -0.1774
      7 AR         -0.9859    6.4363   -0.1200 AR    6     AR      0.0000
      8 AR         -1.2000    1.8986    0.1544 AR    7     AR      0.0000
      9 HYD        -4.3093   -2.4749   -0.0688 HYD   8     HYD     0.0000
     10 HYD        -1.0992    9.0512   -0.2705 HYD   9     HYD     0.0000
@<TRIPOS>BOND
@<TRIPOS>MOLECULE
ligands12_5.mol2
    28    28
SMALL
NO_CHARGES
@<TRIPOS>ATOM
      1 N1         -3.1947    4.1482   -0.1916 N.3   1     BBC1   -0.3185
      2 C1         -2.2156    3.1954    0.3481 C.3   1     BBC1    0.0961
      3 C2         -2.8702    1.8690    0.1886 C.3   1     BBC1   -0.0024
      4 C3         -1.4680    1.2049    0.1958 C.ar  1     BBC1   -0.0453
      5 C4         -0.4396    2.1256    0.1225 C.ar  1     BBC1   -0.0581
      6 C5          0.8743    1.6960    0.1270 C.ar  1     BBC1   -0.0520
      7 C6          1.1598    0.3457    0.2053 C.ar  1     BBC1    0.0346
      8 C7          2.5921   -0.1227    0.2097 C.3   1     BBC1    0.3752
      9 F1          3.3990    0.8500    0.8098 F     1     BBC1   -0.1846
     10 F2          2.6895   -1.3183    0.9296 F     1     BBC1   -0.1846
     11 P1          3.1464   -0.3987   -1.5049 P.3   1     BBC1    0.2478
     12 O1          4.5178   -0.9554   -1.4964 O.co2 1     BBC1   -0.7698
     13 O2          2.1509   -1.4354   -2.2304 O.co2 1     BBC1   -0.7698
     14 O3          3.1397    0.9996   -2.3028 O.co2 1     BBC1   -0.7698
     15 C8          0.1312   -0.5750    0.2800 C.ar  1     BBC1   -0.0520
     16 C9         -1.1826   -0.1452    0.2793 C.ar  1     BBC1   -0.0581
     17 C10        -0.8484    3.5163   -0.1987 C.2   1     BBC1    0.1940
     18 O4         -0.2747    4.5179    0.1584 O.co2 1     BBC1   -0.6467
     19 O5         -0.2680    2.6894   -1.0826 O.co2 1     BBC1   -0.6467
     20 H11        -2.9333    5.0957    0.0812 H     1     BBC1    0.1190
     21 H12        -4.1494    3.9174    0.0837 H     1     BBC1    0.1190
     22 H1         -2.2887    2.1008    0.5473 H     1     BBC1    0.0573
     23 H21        -1.8052    1.0340    0.1649 H     1     BBC1    0.0334
     24 H22        -2.7658    1.7732   -1.1648 H     1     BBC1    0.0334
     25 H4         -0.6673    3.2030    0.0606 H     1     BBC1    0.0620
     26 H5          1.6949    2.4306    0.0681 H     1     BBC1    0.0622
     27 H8          0.3589   -1.6526    0.3402 H     1     BBC1    0.0622
     28 H9         -2.0030   -0.8794    0.3454 H     1     BBC1    0.0620
@<TRIPOS>BOND
     1     1     2    1 
     2     1    20    1 
     3     1    21    1 
     4     2     3    1 
     5     2    17    1 
     6     2    22    1 
     7     3     4    1 
     8     3    23    1 
     9     3    24    1 
    10     4     5    ar
    11     4    16    ar
    12     5     6    ar
    13     5    25    1 
    14     6     7    ar
    15     6    26    1 
    16     7     8    1 
    17     7    15    ar
    18     8     9    1 
    19     8    10    1 
    20     8    11    1 
    21    11    12    1 
    22    11    13    1 
    23    11    14    1 
    24    15    16    ar
    25    15    27    1 
    26    16    28    1 
    27    17    18    2 
    28    17    19    1 
@<TRIPOS>MOLECULE
Molecule ligands12_5.mol2
     8     0
SMALL
NO_CHARGES
@<TRIPOS>ATOM
      1 DON        -3.1947    4.1482   -0.1916 HB    0     HB      0.0000
      2 ACC        -3.1947    4.1482   -0.1916 HB    1     HB      0.0000
      3 ACC        -0.2747    4.5179    0.1584 HB    2     HB      0.0000
      4 ACC        -0.2680    2.6894   -1.0826 HB    3     HB      0.0000
      5 ANI         3.1464   -0.3987   -1.5049 CHG   4     CHG     0.2478
      6 ANI        -0.8484    3.5163   -0.1987 CHG   5     CHG     0.1940
      7 AR         -0.1542    0.7753    0.2017 AR    6     AR      0.0000
      8 HYD        -2.2725    1.4106    0.2069 HYD   7     HYD     0.0000
@<TRIPOS>BOND
