@<TRIPOS>MOLECULE
smiles:COc1cc(Nc2nn([...
44 46 1 0 0
SMALL
NO_CHARGES


@<TRIPOS>ATOM
      1 C1          5.3649    1.3314   -1.5123 C.3       1 AAA    0.0000
      2 O1          5.4200    0.0876   -0.8108 O.3       1 AAA    0.0000
      3 C2          4.2128   -0.0774   -0.2083 C.ar      1 AAA    0.0000
      4 C3          3.2269    0.8853   -0.3558 C.ar      1 AAA    0.0000
      5 C4          1.9949    0.7136    0.2604 C.ar      1 AAA    0.0000
      6 N1          0.9981    1.6823    0.1135 N.pl3     1 AAA    0.0000
      7 C5         -0.3466    1.3133    0.1668 C.ar      1 AAA    0.0000
      8 N2         -0.8082    0.0907    0.2529 N.ar      1 AAA    0.0000
      9 N3         -2.2064    0.1361    0.2826 N.ar      1 AAA    0.0000
     10 C6         -3.0969   -1.0234    0.3752 C.3       1 AAA    0.0000
     11 H1         -2.5695   -1.8514    0.8490 H         1 AAA    0.0000
     12 C7         -4.3286   -0.6580    1.2068 C.3       1 AAA    0.0000
     13 O2         -5.1872   -1.7910    1.3222 O.3       1 AAA    0.0000
     14 C8         -5.7184   -2.0636    0.0269 C.3       1 AAA    0.0000
     15 C9         -4.6006   -2.5441   -0.9013 C.3       1 AAA    0.0000
     16 C10        -3.5462   -1.4386   -1.0303 C.3       1 AAA    0.0000
     17 H2         -3.9782   -0.5792   -1.5429 H         1 AAA    0.0000
     18 C11        -2.3938   -1.9421   -1.7954 C.1       1 AAA    0.0000
     19 N4         -1.5045   -2.3306   -2.3859 N.1       1 AAA    0.0000
     20 C12        -2.5959    1.4179    0.2126 C.ar      1 AAA    0.0000
     21 C13        -1.4568    2.1962    0.1435 C.ar      1 AAA    0.0000
     22 C14        -1.4048    3.6645    0.0541 C.2       1 AAA    0.0000
     23 N5         -2.5473    4.3792    0.0329 N.am      1 AAA    0.0000
     24 O3         -0.3309    4.2329   -0.0006 O.2       1 AAA    0.0000
     25 C15         1.7536   -0.4227    1.0231 C.ar      1 AAA    0.0000
     26 C16         2.7385   -1.3803    1.1680 C.ar      1 AAA    0.0000
     27 C17         3.9647   -1.2135    0.5506 C.ar      1 AAA    0.0000
     28 Cl1         5.1994   -2.4198    0.7348 Cl        1 AAA    0.0000
     29 H3          6.3162    1.5079   -2.0142 H         1 AAA    0.0000
     30 H4          4.5650    1.2962   -2.2519 H         1 AAA    0.0000
     31 H5          5.1714    2.1387   -0.8060 H         1 AAA    0.0000
     32 H6          3.4169    1.7678   -0.9487 H         1 AAA    0.0000
     33 H7          1.2411    2.6110   -0.0254 H         1 AAA    0.0000
     34 H8         -4.0134   -0.3395    2.2005 H         1 AAA    0.0000
     35 H9         -4.8660    0.1559    0.7200 H         1 AAA    0.0000
     36 H10        -6.4828   -2.8369    0.1041 H         1 AAA    0.0000
     37 H11        -6.1628   -1.1557   -0.3809 H         1 AAA    0.0000
     38 H12        -4.1393   -3.4391   -0.4838 H         1 AAA    0.0000
     39 H13        -5.0144   -2.7701   -1.8840 H         1 AAA    0.0000
     40 H14        -3.6146    1.7764    0.2141 H         1 AAA    0.0000
     41 H15        -3.4038    3.9260    0.0766 H         1 AAA    0.0000
     42 H16        -2.5131    5.3468   -0.0260 H         1 AAA    0.0000
     43 H17         0.7955   -0.5570    1.5032 H         1 AAA    0.0000
     44 H18         2.5493   -2.2626    1.7614 H         1 AAA    0.0000
@<TRIPOS>BOND
     1    1    2 1
     2    2    3 1
     3    3    4 ar
     4    4    5 ar
     5    5    6 1
     6    6    7 1
     7    7    8 ar
     8    8    9 ar
     9    9   10 1
    10   10   11 1
    11   10   12 1
    12   12   13 1
    13   13   14 1
    14   14   15 1
    15   15   16 1
    16   16   17 1
    17   10   16 1
    18   16   18 1
    19   18   19 3
    20    9   20 ar
    21   20   21 ar
    22    7   21 ar
    23   21   22 1
    24   22   23 am
    25   22   24 2
    26    5   25 ar
    27   25   26 ar
    28   26   27 ar
    29    3   27 ar
    30   27   28 1
    31    1   29 1
    32    1   30 1
    33    1   31 1
    34    4   32 1
    35    6   33 1
    36   12   34 1
    37   12   35 1
    38   14   36 1
    39   14   37 1
    40   15   38 1
    41   15   39 1
    42   20   40 1
    43   23   41 1
    44   23   42 1
    45   25   43 1
    46   26   44 1
@<TRIPOS>SUBSTRUCTURE
     1 AAA     1 RESIDUE           4 A     AAA     0 ROOT
@<TRIPOS>MOLECULE
smiles:COc1ccc(Cl)cc1...
42 45 1 0 0
SMALL
NO_CHARGES


@<TRIPOS>ATOM
      1 C1          5.5690    0.6715   -1.8991 C.3       1 AAB    0.0000
      2 O1          4.3786    1.0496   -1.2048 O.3       1 AAB    0.0000
      3 C2          3.8679   -0.0834   -0.6552 C.ar      1 AAB    0.0000
      4 C3          4.5137   -1.2957   -0.8360 C.ar      1 AAB    0.0000
      5 C4          3.9935   -2.4478   -0.2771 C.ar      1 AAB    0.0000
      6 C5          2.8262   -2.3980    0.4661 C.ar      1 AAB    0.0000
      7 Cl1         2.1822   -3.8513    1.1639 Cl        1 AAB    0.0000
      8 C6          2.1728   -1.1957    0.6542 C.ar      1 AAB    0.0000
      9 C7          2.6923   -0.0284    0.0993 C.ar      1 AAB    0.0000
     10 C8          1.9951    1.2654    0.2986 C.ar      1 AAB    0.0000
     11 N1          2.5710    2.4270    0.5268 N.ar      1 AAB    0.0000
     12 N2          1.5685    3.3964    0.6560 N.ar      1 AAB    0.0000
     13 C9          1.7796    4.8227    0.9152 C.3       1 AAB    0.0000
     14 C10         0.3655    2.7836    0.4985 C.ar      1 AAB    0.0000
     15 C11         0.5977    1.4676    0.2707 C.ar      1 AAB    0.0000
     16 N3         -0.3786    0.4791    0.0545 N.am      1 AAB    0.0000
     17 C12        -1.6853    0.8092    0.0631 C.2       1 AAB    0.0000
     18 O2         -2.0203    1.9632    0.2581 O.2       1 AAB    0.0000
     19 C13        -2.7031   -0.2214   -0.1623 C.ar      1 AAB    0.0000
     20 C14        -2.4724   -1.5884   -0.3992 C.ar      1 AAB    0.0000
     21 N4         -3.6237   -2.1880   -0.5516 N.ar      1 AAB    0.0000
     22 N5         -4.6577   -1.2542   -0.4236 N.ar      1 AAB    0.0000
     23 C15        -6.0136   -1.3745   -0.4972 C.2       1 AAB    0.0000
     24 C16        -6.7855   -0.2708   -0.3280 C.2       1 AAB    0.0000
     25 C17        -6.1733    0.9637   -0.0823 C.2       1 AAB    0.0000
     26 N6         -4.8627    1.0487   -0.0172 N.2       1 AAB    0.0000
     27 C18        -4.0983   -0.0326   -0.1768 C.ar      1 AAB    0.0000
     28 H1          6.0166    1.5525   -2.3591 H         1 AAB    0.0000
     29 H2          6.2753    0.2303   -1.1958 H         1 AAB    0.0000
     30 H3          5.3231   -0.0567   -2.6720 H         1 AAB    0.0000
     31 H4          5.4245   -1.3406   -1.4146 H         1 AAB    0.0000
     32 H5          4.4996   -3.3910   -0.4210 H         1 AAB    0.0000
     33 H6          1.2625   -1.1601    1.2343 H         1 AAB    0.0000
     34 H7          1.8739    5.3541   -0.0318 H         1 AAB    0.0000
     35 H8          0.9311    5.2203    1.4720 H         1 AAB    0.0000
     36 H9          2.6910    4.9550    1.4983 H         1 AAB    0.0000
     37 H10        -0.6023    3.2608    0.5424 H         1 AAB    0.0000
     38 H11        -0.1116   -0.4405   -0.1009 H         1 AAB    0.0000
     39 H12        -1.5040   -2.0639   -0.4477 H         1 AAB    0.0000
     40 H13        -6.4678   -2.3356   -0.6880 H         1 AAB    0.0000
     41 H14        -7.8616   -0.3444   -0.3829 H         1 AAB    0.0000
     42 H15        -6.7783    1.8479    0.0537 H         1 AAB    0.0000
@<TRIPOS>BOND
     1    1    2 1
     2    2    3 1
     3    3    4 ar
     4    4    5 ar
     5    5    6 ar
     6    6    7 1
     7    6    8 ar
     8    8    9 ar
     9    3    9 ar
    10    9   10 1
    11   10   11 ar
    12   11   12 ar
    13   12   13 1
    14   12   14 ar
    15   14   15 ar
    16   10   15 ar
    17   15   16 1
    18   16   17 am
    19   17   18 2
    20   17   19 1
    21   19   20 ar
    22   20   21 ar
    23   21   22 ar
    24   22   23 1
    25   23   24 2
    26   24   25 2
    27   25   26 2
    28   26   27 1
    29   19   27 ar
    30   22   27 ar
    31    1   28 1
    32    1   29 1
    33    1   30 1
    34    4   31 1
    35    5   32 1
    36    8   33 1
    37   13   34 1
    38   13   35 1
    39   13   36 1
    40   14   37 1
    41   16   38 1
    42   20   39 1
    43   23   40 1
    44   24   41 1
    45   25   42 1
@<TRIPOS>SUBSTRUCTURE
     1 AAB     1 RESIDUE           4 A     AAB     0 ROOT
@<TRIPOS>MOLECULE
smiles:O=c1[nH]ccc2c(...
34 36 1 0 0
SMALL
NO_CHARGES


@<TRIPOS>ATOM
      1 O1         -4.7918   -0.7632    0.0378 O.2       1 AAC    0.0000
      2 C1         -3.8281   -0.0192    0.0697 C.2       1 AAC    0.0000
      3 N1         -3.9956    1.3087    0.2334 N.am      1 AAC    0.0000
      4 H1         -4.8953    1.6594    0.3246 H         1 AAC    0.0000
      5 C2         -2.9435    2.1760    0.2756 C.2       1 AAC    0.0000
      6 C3         -1.6673    1.7657    0.1563 C.2       1 AAC    0.0000
      7 C4         -1.3874    0.3460   -0.0248 C.ar      1 AAC    0.0000
      8 C5         -0.0791   -0.1655   -0.1588 C.ar      1 AAC    0.0000
      9 N2          1.0193    0.6714   -0.1225 N.pl3     1 AAC    0.0000
     10 C6          2.3678    0.1167   -0.2638 C.3       1 AAC    0.0000
     11 C7          3.3087    1.1950   -0.8050 C.3       1 AAC    0.0000
     12 C8          4.7171    0.6156   -0.9525 C.3       1 AAC    0.0000
     13 C9          5.2184    0.1397    0.4124 C.3       1 AAC    0.0000
     14 C10         4.2775   -0.9386    0.9536 C.3       1 AAC    0.0000
     15 C11         2.8691   -0.3593    1.1012 C.3       1 AAC    0.0000
     16 N3          0.0643   -1.4753   -0.3203 N.ar      1 AAC    0.0000
     17 C12        -0.9818   -2.2830   -0.3557 C.ar      1 AAC    0.0000
     18 N4         -2.2194   -1.8542   -0.2360 N.ar      1 AAC    0.0000
     19 C13        -2.4679   -0.5574   -0.0634 C.ar      1 AAC    0.0000
     20 H2         -3.1418    3.2293    0.4090 H         1 AAC    0.0000
     21 H3         -0.8587    2.4806    0.1940 H         1 AAC    0.0000
     22 H4          0.8977    1.6263   -0.0034 H         1 AAC    0.0000
     23 H5          2.3437   -0.7252   -0.9557 H         1 AAC    0.0000
     24 H6          2.9516    1.5340   -1.7774 H         1 AAC    0.0000
     25 H7          3.3328    2.0368   -0.1130 H         1 AAC    0.0000
     26 H8          4.6930   -0.2262   -1.6445 H         1 AAC    0.0000
     27 H9          5.3874    1.3838   -1.3381 H         1 AAC    0.0000
     28 H10         6.2217   -0.2730    0.3073 H         1 AAC    0.0000
     29 H11         5.2424    0.9815    1.1044 H         1 AAC    0.0000
     30 H12         4.2534   -1.7804    0.2616 H         1 AAC    0.0000
     31 H13         4.6346   -1.2777    1.9260 H         1 AAC    0.0000
     32 H14         2.8932    0.4826    1.7931 H         1 AAC    0.0000
     33 H15         2.1988   -1.1275    1.4867 H         1 AAC    0.0000
     34 H16        -0.8128   -3.3413   -0.4892 H         1 AAC    0.0000
@<TRIPOS>BOND
     1    1    2 2
     2    2    3 am
     3    3    4 1
     4    3    5 1
     5    5    6 2
     6    6    7 1
     7    7    8 ar
     8    8    9 1
     9    9   10 1
    10   10   11 1
    11   11   12 1
    12   12   13 1
    13   13   14 1
    14   14   15 1
    15   10   15 1
    16    8   16 ar
    17   16   17 ar
    18   17   18 ar
    19   18   19 ar
    20    2   19 1
    21    7   19 ar
    22    5   20 1
    23    6   21 1
    24    9   22 1
    25   10   23 1
    26   11   24 1
    27   11   25 1
    28   12   26 1
    29   12   27 1
    30   13   28 1
    31   13   29 1
    32   14   30 1
    33   14   31 1
    34   15   32 1
    35   15   33 1
    36   17   34 1
@<TRIPOS>SUBSTRUCTURE
     1 AAC     1 RESIDUE           4 A     AAC     0 ROOT
@<TRIPOS>MOLECULE
smiles:Nc1ncnc2c1ncn2...
42 44 1 0 0
SMALL
NO_CHARGES


@<TRIPOS>ATOM
      1 N1          6.9341    2.8970    0.6036 N.pl3     1 BBB    0.0000
      2 C1          6.3767    1.7620    0.0411 C.ar      1 BBB    0.0000
      3 N2          7.1124    0.9375   -0.6974 N.ar      1 BBB    0.0000
      4 C2          6.5891   -0.1476   -1.2380 C.ar      1 BBB    0.0000
      5 N3          5.3237   -0.4752   -1.0815 N.ar      1 BBB    0.0000
      6 C3          4.5107    0.2886   -0.3593 C.ar      1 BBB    0.0000
      7 C4          5.0212    1.4515    0.2423 C.ar      1 BBB    0.0000
      8 N4          3.9983    2.0374    0.9099 N.ar      1 BBB    0.0000
      9 C5          2.9191    1.3257    0.7601 C.ar      1 BBB    0.0000
     10 N5          3.1847    0.2336   -0.0113 N.ar      1 BBB    0.0000
     11 C6          2.2278   -0.8040   -0.4036 C.3       1 BBB    0.0000
     12 H1          2.4409   -1.1533   -1.4139 H         1 BBB    0.0000
     13 O1          0.8771   -0.2998   -0.3202 O.3       1 BBB    0.0000
     14 C7          0.0381   -1.4720   -0.2317 C.3       1 BBB    0.0000
     15 H2         -0.0854   -1.9255   -1.2152 H         1 BBB    0.0000
     16 C8         -1.3248   -1.1080    0.3608 C.3       1 BBB    0.0000
     17 O2         -2.0269   -0.2568   -0.5472 O.3       1 BBB    0.0000
     18 P1         -3.4440    0.0847    0.1364 P.3       1 BBB    0.0000
     19 O3         -4.1431   -1.1743    0.4781 O.co2     1 BBB    0.0000
     20 O4         -3.2005    0.9439    1.4760 O.3       1 BBB    0.0000
     21 O5         -4.3442    0.9365   -0.8913 O.3       1 BBB    0.0000
     22 P2         -5.8523    0.9010   -0.3288 P.3       1 BBB    0.0000
     23 O6         -5.8412    1.1558    1.1291 O.co2     1 BBB    0.0000
     24 O7         -6.7266    2.0348   -1.0651 O.3       1 BBB    0.0000
     25 O8         -6.4982   -0.5456   -0.6158 O.3       1 BBB    0.0000
     26 C9          0.7982   -2.4311    0.7111 C.3       1 BBB    0.0000
     27 H3          0.4441   -2.3194    1.7359 H         1 BBB    0.0000
     28 O9          0.6488   -3.7839    0.2757 O.3       1 BBB    0.0000
     29 C10         2.2740   -1.9829    0.5938 C.3       1 BBB    0.0000
     30 H4          2.6497   -1.6487    1.5609 H         1 BBB    0.0000
     31 O10         3.0813   -3.0464    0.0847 O.3       1 BBB    0.0000
     32 H5          7.8721    3.0985    0.4607 H         1 BBB    0.0000
     33 H6          6.3858    3.4931    1.1373 H         1 BBB    0.0000
     34 H7          7.2229   -0.7902   -1.8311 H         1 BBB    0.0000
     35 H8          1.9560    1.5634    1.1871 H         1 BBB    0.0000
     36 H9         -1.9029   -2.0169    0.5275 H         1 BBB    0.0000
     37 H10        -1.1821   -0.5892    1.3087 H         1 BBB    0.0000
     38 H11        -2.7439    1.7536    1.2095 H         1 BBB    0.0000
     39 H12        -7.6204    1.9794   -0.7001 H         1 BBB    0.0000
     40 H13        -6.4864   -0.6717   -1.5744 H         1 BBB    0.0000
     41 H14         1.1422   -4.3343    0.8993 H         1 BBB    0.0000
     42 H15         3.0207   -3.7723    0.7207 H         1 BBB    0.0000
@<TRIPOS>BOND
     1    1    2 1
     2    2    3 ar
     3    3    4 ar
     4    4    5 ar
     5    5    6 ar
     6    6    7 ar
     7    2    7 ar
     8    7    8 ar
     9    8    9 ar
    10    9   10 ar
    11    6   10 ar
    12   10   11 1
    13   11   12 1
    14   11   13 1
    15   13   14 1
    16   14   15 1
    17   14   16 1
    18   16   17 1
    19   17   18 1
    20   18   19 1
    21   18   20 1
    22   18   21 1
    23   21   22 1
    24   22   23 1
    25   22   24 1
    26   22   25 1
    27   14   26 1
    28   26   27 1
    29   26   28 1
    30   26   29 1
    31   29   30 1
    32   11   29 1
    33   29   31 1
    34    1   32 1
    35    1   33 1
    36    4   34 1
    37    9   35 1
    38   16   36 1
    39   16   37 1
    40   20   38 1
    41   24   39 1
    42   25   40 1
    43   28   41 1
    44   31   42 1
@<TRIPOS>SUBSTRUCTURE
     1 BBB     1 RESIDUE           4 A     BBB     0 ROOT
@<TRIPOS>MOLECULE
smiles:N[C@@H](Cc1ccc...
31 31 1 0 0
SMALL
NO_CHARGES


@<TRIPOS>ATOM
      1 N1          3.2984   -1.4562    0.8072 N.4       1 BBC    0.0000
      2 C1          3.6678   -0.4378   -0.1848 C.3       1 BBC    0.0000
      3 H1          3.2473   -0.7054   -1.1542 H         1 BBC    0.0000
      4 C2          3.1188    0.9220    0.2514 C.3       1 BBC    0.0000
      5 C3          1.6123    0.8825    0.2402 C.ar      1 BBC    0.0000
      6 C4          0.9225    0.4991    1.3751 C.ar      1 BBC    0.0000
      7 C5         -0.4594    0.4628    1.3647 C.ar      1 BBC    0.0000
      8 C6         -1.1514    0.8105    0.2197 C.ar      1 BBC    0.0000
      9 C7         -2.6578    0.7705    0.2082 C.3       1 BBC    0.0000
     10 F1         -3.1415    1.0511    1.4906 F         1 BBC    0.0000
     11 F2         -3.1428    1.7250   -0.6923 F         1 BBC    0.0000
     12 P1         -3.2178   -0.8873   -0.3032 P.3       1 BBC    0.0000
     13 O1         -4.6937   -0.8973   -0.4131 O.co2     1 BBC    0.0000
     14 O2         -2.5708   -1.2556   -1.7307 O.3       1 BBC    0.0000
     15 O3         -2.7538   -1.9721    0.7922 O.3       1 BBC    0.0000
     16 C8         -0.4615    1.1953   -0.9148 C.ar      1 BBC    0.0000
     17 C9          0.9202    1.2352   -0.9033 C.ar      1 BBC    0.0000
     18 C10         5.1691   -0.3624   -0.2921 C.2       1 BBC    0.0000
     19 O4          5.8609   -0.7892    0.6019 O.2       1 BBC    0.0000
     20 O5          5.7379    0.1790   -1.3808 O.3       1 BBC    0.0000
     21 H2          3.7068   -1.1687    1.6839 H         1 BBC    0.0000
     22 H3          2.2974   -1.4000    0.9215 H         1 BBC    0.0000
     23 H4          3.4688    1.1491    1.2584 H         1 BBC    0.0000
     24 H5          3.4672    1.6923   -0.4366 H         1 BBC    0.0000
     25 H6          1.4631    0.2275    2.2697 H         1 BBC    0.0000
     26 H7         -0.9983    0.1626    2.2512 H         1 BBC    0.0000
     27 H8         -2.8916   -2.1375   -1.9638 H         1 BBC    0.0000
     28 H9         -1.7881   -1.9381    0.8277 H         1 BBC    0.0000
     29 H10        -1.0022    1.4672   -1.8093 H         1 BBC    0.0000
     30 H11         1.4591    1.5358   -1.7896 H         1 BBC    0.0000
     31 H12         6.7012    0.2274   -1.4496 H         1 BBC    0.0000
@<TRIPOS>BOND
     1    1    2 1
     2    2    3 1
     3    2    4 1
     4    4    5 1
     5    5    6 ar
     6    6    7 ar
     7    7    8 ar
     8    8    9 1
     9    9   10 1
    10    9   11 1
    11    9   12 1
    12   12   13 1
    13   12   14 1
    14   12   15 1
    15    8   16 ar
    16   16   17 ar
    17    5   17 ar
    18    2   18 1
    19   18   19 2
    20   18   20 1
    21    1   21 1
    22    1   22 1
    23    4   23 1
    24    4   24 1
    25    6   25 1
    26    7   26 1
    27   14   27 1
    28   15   28 1
    29   16   29 1
    30   17   30 1
    31   20   31 1
@<TRIPOS>SUBSTRUCTURE
     1 BBC     1 RESIDUE           4 A     BBC     0 ROOT
@<TRIPOS>MOLECULE
smiles:COc1cc(F)c(-c2...
52 55 1 0 0
SMALL
NO_CHARGES


@<TRIPOS>ATOM
      1 C1          7.0067   -0.7856   -1.2824 C.3       1 CCC    0.0000
      2 O1          6.2894   -1.3867   -0.2025 O.3       1 CCC    0.0000
      3 C2          5.0812   -0.7674   -0.1405 C.ar      1 CCC    0.0000
      4 C3          4.7740    0.2414   -1.0414 C.ar      1 CCC    0.0000
      5 C4          3.5475    0.8740   -0.9819 C.ar      1 CCC    0.0000
      6 F1          3.2502    1.8564   -1.8604 F         1 CCC    0.0000
      7 C5          2.6138    0.4965   -0.0122 C.ar      1 CCC    0.0000
      8 C6          1.3010    1.1707    0.0539 C.ar      1 CCC    0.0000
      9 N1          0.1582    0.5759    0.2963 N.ar      1 CCC    0.0000
     10 C7         -0.8392    1.4920    0.2833 C.ar      1 CCC    0.0000
     11 C8         -2.2302    1.4150    0.4775 C.ar      1 CCC    0.0000
     12 N2         -2.8496    0.1985    0.7494 N.3       1 CCC    0.0000
     13 C9         -3.0846   -0.4543   -0.5454 C.3       1 CCC    0.0000
     14 C10        -3.8815   -1.7424   -0.3300 C.3       1 CCC    0.0000
     15 C11        -4.2352   -2.3597   -1.6866 C.3       1 CCC    0.0000
     16 C12        -4.9313   -3.7034   -1.4619 C.3       1 CCC    0.0000
     17 N3         -4.0261   -4.6199   -0.7603 N.4       1 CCC    0.0000
     18 C13        -3.7945   -4.0656    0.5778 C.3       1 CCC    0.0000
     19 C14        -3.0359   -2.7418    0.4654 C.3       1 CCC    0.0000
     20 C15        -2.9683    2.5908    0.3903 C.ar      1 CCC    0.0000
     21 Cl1        -4.6888    2.5634    0.6206 Cl        1 CCC    0.0000
     22 C16        -2.3196    3.7825    0.1189 C.ar      1 CCC    0.0000
     23 N4         -1.0141    3.8295   -0.0599 N.ar      1 CCC    0.0000
     24 C17        -0.2601    2.7420    0.0119 C.ar      1 CCC    0.0000
     25 N5          1.0936    2.5140   -0.1233 N.ar      1 CCC    0.0000
     26 H1          1.7729    3.1807   -0.3103 H         1 CCC    0.0000
     27 C18         2.9252   -0.5199    0.8936 C.ar      1 CCC    0.0000
     28 C19         4.1523   -1.1515    0.8244 C.ar      1 CCC    0.0000
     29 O2          4.4575   -2.1420    1.7054 O.3       1 CCC    0.0000
     30 C20         3.3248   -2.2954    2.5631 C.3       1 CCC    0.0000
     31 H2          7.9876   -1.2524   -1.3715 H         1 CCC    0.0000
     32 H3          6.4518   -0.9262   -2.2100 H         1 CCC    0.0000
     33 H4          7.1277    0.2803   -1.0895 H         1 CCC    0.0000
     34 H5          5.4952    0.5331   -1.7905 H         1 CCC    0.0000
     35 H6         -2.1742   -0.3673    1.2411 H         1 CCC    0.0000
     36 H7         -3.6475    0.2171   -1.1939 H         1 CCC    0.0000
     37 H8         -2.1283   -0.6923   -1.0112 H         1 CCC    0.0000
     38 H9         -4.7964   -1.5181    0.2185 H         1 CCC    0.0000
     39 H10        -4.9029   -1.6898   -2.2285 H         1 CCC    0.0000
     40 H11        -3.3244   -2.5136   -2.2652 H         1 CCC    0.0000
     41 H12        -5.8288   -3.5509   -0.8624 H         1 CCC    0.0000
     42 H13        -5.2082   -4.1336   -2.4244 H         1 CCC    0.0000
     43 H14        -4.5305   -5.4844   -0.6327 H         1 CCC    0.0000
     44 H15        -4.7520   -3.8940    1.0697 H         1 CCC    0.0000
     45 H16        -3.2074   -4.7710    1.1657 H         1 CCC    0.0000
     46 H17        -2.0888   -2.9073   -0.0482 H         1 CCC    0.0000
     47 H18        -2.8457   -2.3452    1.4628 H         1 CCC    0.0000
     48 H19        -2.8951    4.6939    0.0517 H         1 CCC    0.0000
     49 H20         2.2068   -0.8144    1.6442 H         1 CCC    0.0000
     50 H21         3.5236   -3.0828    3.2902 H         1 CCC    0.0000
     51 H22         3.1350   -1.3578    3.0856 H         1 CCC    0.0000
     52 H23         2.4518   -2.5627    1.9676 H         1 CCC    0.0000
@<TRIPOS>BOND
     1    1    2 1
     2    2    3 1
     3    3    4 ar
     4    4    5 ar
     5    5    6 1
     6    5    7 ar
     7    7    8 1
     8    8    9 ar
     9    9   10 ar
    10   10   11 ar
    11   11   12 1
    12   12   13 1
    13   13   14 1
    14   14   15 1
    15   15   16 1
    16   16   17 1
    17   17   18 1
    18   18   19 1
    19   14   19 1
    20   11   20 ar
    21   20   21 1
    22   20   22 ar
    23   22   23 ar
    24   23   24 ar
    25   10   24 ar
    26   24   25 ar
    27   25   26 1
    28    8   25 ar
    29    7   27 ar
    30   27   28 ar
    31    3   28 ar
    32   28   29 1
    33   29   30 1
    34    1   31 1
    35    1   32 1
    36    1   33 1
    37    4   34 1
    38   12   35 1
    39   13   36 1
    40   13   37 1
    41   14   38 1
    42   15   39 1
    43   15   40 1
    44   16   41 1
    45   16   42 1
    46   17   43 1
    47   18   44 1
    48   18   45 1
    49   19   46 1
    50   19   47 1
    51   22   48 1
    52   27   49 1
    53   30   50 1
    54   30   51 1
    55   30   52 1
@<TRIPOS>SUBSTRUCTURE
     1 CCC     1 RESIDUE           4 A     CCC     0 ROOT
@<TRIPOS>MOLECULE
smiles:Cc1cnc(Nc2cc(N...
64 67 1 0 0
SMALL
NO_CHARGES


@<TRIPOS>ATOM
      1 C1         -3.9571    3.3906   -2.0652 C.3       1 CCD    0.0000
      2 C2         -2.9582    2.3992   -1.5264 C.ar      1 CCD    0.0000
      3 C3         -1.6061    2.6830   -1.5351 C.ar      1 CCD    0.0000
      4 N1         -0.7535    1.7903   -1.0542 N.ar      1 CCD    0.0000
      5 C4         -1.1801    0.6342   -0.5674 C.ar      1 CCD    0.0000
      6 N2         -0.2567   -0.2727   -0.0737 N.pl3     1 CCD    0.0000
      7 C5          1.0922    0.0834    0.0187 C.ar      1 CCD    0.0000
      8 C6          2.0777   -0.8379   -0.3069 C.ar      1 CCD    0.0000
      9 C7          3.4152   -0.4805   -0.2138 C.ar      1 CCD    0.0000
     10 N3          4.4102   -1.4044   -0.5410 N.3       1 CCD    0.0000
     11 C8          3.7243   -2.6397   -0.9395 C.3       1 CCD    0.0000
     12 C9          4.7545   -3.7401   -1.1960 C.3       1 CCD    0.0000
     13 N4          5.4797   -4.0367    0.0455 N.4       1 CCD    0.0000
     14 C10         6.5262   -5.0085   -0.2987 C.3       1 CCD    0.0000
     15 C11         6.1656   -2.8014    0.4440 C.3       1 CCD    0.0000
     16 C12         5.1353   -1.7010    0.7005 C.3       1 CCD    0.0000
     17 C13         3.7637    0.7982    0.2052 C.ar      1 CCD    0.0000
     18 C14         2.7802    1.7126    0.5286 C.ar      1 CCD    0.0000
     19 S1          3.2263    3.3325    1.0593 S.o2      1 CCD    0.0000
     20 C15         3.2986    4.2703   -0.4919 C.3       1 CCD    0.0000
     21 O1          2.1145    3.7208    1.8545 O.2       1 CCD    0.0000
     22 O2          4.5199    3.1373    1.6139 O.2       1 CCD    0.0000
     23 C16         1.4473    1.3617    0.4314 C.ar      1 CCD    0.0000
     24 N5         -2.4674    0.3242   -0.5405 N.ar      1 CCD    0.0000
     25 C17        -3.3785    1.1753   -1.0018 C.ar      1 CCD    0.0000
     26 N6         -4.7254    0.8480   -0.9724 N.pl3     1 CCD    0.0000
     27 C18        -5.1293   -0.4095   -0.5144 C.ar      1 CCD    0.0000
     28 C19        -4.3505   -1.5294   -0.7777 C.ar      1 CCD    0.0000
     29 C20        -4.7524   -2.7701   -0.3239 C.ar      1 CCD    0.0000
     30 C21        -5.9288   -2.8985    0.3920 C.ar      1 CCD    0.0000
     31 C22        -6.7062   -1.7860    0.6557 C.ar      1 CCD    0.0000
     32 C23        -7.9870   -1.9307    1.4366 C.3       1 CCD    0.0000
     33 O3         -7.7150   -1.7754    2.8308 O.3       1 CCD    0.0000
     34 C24        -6.3071   -0.5412    0.2096 C.ar      1 CCD    0.0000
     35 H1         -4.1151    3.2062   -3.1278 H         1 CCD    0.0000
     36 H2         -4.9019    3.2802   -1.5329 H         1 CCD    0.0000
     37 H3         -3.5770    4.4024   -1.9246 H         1 CCD    0.0000
     38 H4         -1.2481    3.6222   -1.9300 H         1 CCD    0.0000
     39 H5         -0.5458   -1.1547    0.2078 H         1 CCD    0.0000
     40 H6          1.8042   -1.8308   -0.6319 H         1 CCD    0.0000
     41 H7          3.0495   -2.9531   -0.1429 H         1 CCD    0.0000
     42 H8          3.1517   -2.4595   -1.8493 H         1 CCD    0.0000
     43 H9          4.2459   -4.6397   -1.5428 H         1 CCD    0.0000
     44 H10         5.4598   -3.4065   -1.9572 H         1 CCD    0.0000
     45 H11         7.1936   -4.5751   -1.0435 H         1 CCD    0.0000
     46 H12         7.0953   -5.2616    0.5958 H         1 CCD    0.0000
     47 H13         6.0660   -5.9098   -0.7037 H         1 CCD    0.0000
     48 H14         6.7382   -2.9817    1.3538 H         1 CCD    0.0000
     49 H15         6.8404   -2.4881   -0.3526 H         1 CCD    0.0000
     50 H16         5.6440   -0.8015    1.0473 H         1 CCD    0.0000
     51 H17         4.4301   -2.0346    1.4617 H         1 CCD    0.0000
     52 H18         4.8045    1.0769    0.2783 H         1 CCD    0.0000
     53 H19         2.3234    4.2439   -0.9782 H         1 CCD    0.0000
     54 H20         3.5707    5.3041   -0.2791 H         1 CCD    0.0000
     55 H21         4.0451    3.8263   -1.1504 H         1 CCD    0.0000
     56 H22         0.6807    2.0790    0.6849 H         1 CCD    0.0000
     57 H23        -5.3875    1.4915   -1.2697 H         1 CCD    0.0000
     58 H24        -3.4320   -1.4299   -1.3369 H         1 CCD    0.0000
     59 H25        -4.1476   -3.6412   -0.5284 H         1 CCD    0.0000
     60 H26        -6.2410   -3.8701    0.7455 H         1 CCD    0.0000
     61 H27        -8.6955   -1.1663    1.1173 H         1 CCD    0.0000
     62 H28        -8.4124   -2.9181    1.2571 H         1 CCD    0.0000
     63 H29        -8.5586   -1.8749    3.2930 H         1 CCD    0.0000
     64 H30        -6.9148    0.3275    0.4160 H         1 CCD    0.0000
@<TRIPOS>BOND
     1    1    2 1
     2    2    3 ar
     3    3    4 ar
     4    4    5 ar
     5    5    6 1
     6    6    7 1
     7    7    8 ar
     8    8    9 ar
     9    9   10 1
    10   10   11 1
    11   11   12 1
    12   12   13 1
    13   13   14 1
    14   13   15 1
    15   15   16 1
    16   10   16 1
    17    9   17 ar
    18   17   18 ar
    19   18   19 1
    20   19   20 1
    21   19   21 2
    22   19   22 2
    23   18   23 ar
    24    7   23 ar
    25    5   24 ar
    26   24   25 ar
    27    2   25 ar
    28   25   26 1
    29   26   27 1
    30   27   28 ar
    31   28   29 ar
    32   29   30 ar
    33   30   31 ar
    34   31   32 1
    35   32   33 1
    36   31   34 ar
    37   27   34 ar
    38    1   35 1
    39    1   36 1
    40    1   37 1
    41    3   38 1
    42    6   39 1
    43    8   40 1
    44   11   41 1
    45   11   42 1
    46   12   43 1
    47   12   44 1
    48   14   45 1
    49   14   46 1
    50   14   47 1
    51   15   48 1
    52   15   49 1
    53   16   50 1
    54   16   51 1
    55   17   52 1
    56   20   53 1
    57   20   54 1
    58   20   55 1
    59   23   56 1
    60   26   57 1
    61   28   58 1
    62   29   59 1
    63   30   60 1
    64   32   61 1
    65   32   62 1
    66   33   63 1
    67   34   64 1
@<TRIPOS>SUBSTRUCTURE
     1 CCD     1 RESIDUE           4 A     CCD     0 ROOT
@<TRIPOS>MOLECULE
smiles:CS(=O)(=O)NCc1...
46 50 1 0 0
SMALL
NO_CHARGES


@<TRIPOS>ATOM
      1 C1          4.7357    2.1349   -0.4474 C.3       1 CCE    0.0000
      2 S1          3.9772    0.6555    0.2782 S.o2      1 CCE    0.0000
      3 O1          3.9835   -0.4360   -0.6316 O.2       1 CCE    0.0000
      4 O2          4.3336    0.5012    1.6451 O.2       1 CCE    0.0000
      5 N1          2.3724    1.0559    0.3601 N.pl3     1 CCE    0.0000
      6 C2          1.6279    1.3524   -0.8662 C.3       1 CCE    0.0000
      7 C3          0.1504    1.3514   -0.5696 C.ar      1 CCE    0.0000
      8 N2         -0.5553    2.4078   -0.2887 N.ar      1 CCE    0.0000
      9 C4         -1.8468    2.0485   -0.0775 C.ar      1 CCE    0.0000
     10 C5         -3.0145    2.7473    0.2488 C.ar      1 CCE    0.0000
     11 N3         -4.1602    2.1228    0.3962 N.ar      1 CCE    0.0000
     12 C6         -4.2793    0.8055    0.2461 C.ar      1 CCE    0.0000
     13 N4         -5.3484   -0.0534    0.3479 N.ar      1 CCE    0.0000
     14 H1         -6.2559    0.2115    0.5653 H         1 CCE    0.0000
     15 C7         -4.9443   -1.3366    0.0977 C.ar      1 CCE    0.0000
     16 C8         -3.6282   -1.3549   -0.1693 C.ar      1 CCE    0.0000
     17 C9         -3.1573    0.0271   -0.0820 C.ar      1 CCE    0.0000
     18 C10        -1.9154    0.6558   -0.2477 C.ar      1 CCE    0.0000
     19 N5         -0.6442    0.2454   -0.5618 N.ar      1 CCE    0.0000
     20 C11        -0.2198   -1.1295   -0.8368 C.3       1 CCE    0.0000
     21 H2         -0.3390   -1.3585   -1.8958 H         1 CCE    0.0000
     22 C12        -1.0293   -2.1258    0.0243 C.3       1 CCE    0.0000
     23 C13         0.0387   -2.8443    0.9045 C.3       1 CCE    0.0000
     24 H3         -0.3356   -3.3324    1.8044 H         1 CCE    0.0000
     25 C14         0.8166   -3.7566   -0.0924 C.3       1 CCE    0.0000
     26 C15         1.6282   -2.7751   -0.9685 C.3       1 CCE    0.0000
     27 C16         1.2619   -1.3389   -0.3988 C.3       1 CCE    0.0000
     28 H4          1.9625   -0.5387   -0.6376 H         1 CCE    0.0000
     29 C17         1.0657   -1.6780    1.1243 C.3       1 CCE    0.0000
     30 H5          4.3013    2.3215   -1.4295 H         1 CCE    0.0000
     31 H6          4.5518    2.9923    0.2000 H         1 CCE    0.0000
     32 H7          5.8099    1.9800   -0.5488 H         1 CCE    0.0000
     33 H8          1.9254    1.0940    1.2201 H         1 CCE    0.0000
     34 H9          1.9224    2.3323   -1.2421 H         1 CCE    0.0000
     35 H10         1.8482    0.5939   -1.6174 H         1 CCE    0.0000
     36 H11        -2.9726    3.8182    0.3819 H         1 CCE    0.0000
     37 H12        -5.5871   -2.2044    0.1130 H         1 CCE    0.0000
     38 H13        -3.0315   -2.2242   -0.4034 H         1 CCE    0.0000
     39 H14        -1.7430   -1.5927    0.6524 H         1 CCE    0.0000
     40 H15        -1.5447   -2.8459   -0.6112 H         1 CCE    0.0000
     41 H16         1.4857   -4.4260    0.4480 H         1 CCE    0.0000
     42 H17         0.1207   -4.3279   -0.7068 H         1 CCE    0.0000
     43 H18         2.6965   -2.9621   -0.8587 H         1 CCE    0.0000
     44 H19         1.3315   -2.8640   -2.0135 H         1 CCE    0.0000
     45 H20         0.6390   -0.8414    1.6776 H         1 CCE    0.0000
     46 H21         1.9853   -2.0398    1.5843 H         1 CCE    0.0000
@<TRIPOS>BOND
     1    1    2 1
     2    2    3 2
     3    2    4 2
     4    2    5 1
     5    5    6 1
     6    6    7 1
     7    7    8 ar
     8    8    9 ar
     9    9   10 ar
    10   10   11 ar
    11   11   12 ar
    12   12   13 ar
    13   13   14 1
    14   13   15 ar
    15   15   16 ar
    16   16   17 ar
    17   12   17 ar
    18   17   18 ar
    19    9   18 ar
    20   18   19 ar
    21    7   19 ar
    22   19   20 1
    23   20   21 1
    24   20   22 1
    25   22   23 1
    26   23   24 1
    27   23   25 1
    28   25   26 1
    29   26   27 1
    30   27   28 1
    31   20   27 1
    32   27   29 1
    33   23   29 1
    34    1   30 1
    35    1   31 1
    36    1   32 1
    37    5   33 1
    38    6   34 1
    39    6   35 1
    40   10   36 1
    41   15   37 1
    42   16   38 1
    43   22   39 1
    44   22   40 1
    45   25   41 1
    46   25   42 1
    47   26   43 1
    48   26   44 1
    49   29   45 1
    50   29   46 1
@<TRIPOS>SUBSTRUCTURE
     1 CCE     1 RESIDUE           4 A     CCE     0 ROOT
@<TRIPOS>MOLECULE
smiles:Cc1nc2cnc3[nH]...
36 39 1 0 0
SMALL
NO_CHARGES


@<TRIPOS>ATOM
      1 C1         -1.0205    3.7034   -0.0047 C.3       1 CCF    0.0000
      2 C2         -0.0339    2.5643   -0.0034 C.ar      1 CCF    0.0000
      3 N1          1.2604    2.6977    0.0010 N.ar      1 CCF    0.0000
      4 C3          1.8435    1.4723    0.0017 C.ar      1 CCF    0.0000
      5 C4          3.1679    1.0205    0.0057 C.ar      1 CCF    0.0000
      6 N2          3.4472   -0.2626    0.0048 N.ar      1 CCF    0.0000
      7 C5          2.5009   -1.1987    0.0007 C.ar      1 CCF    0.0000
      8 N3          2.5466   -2.5732   -0.0017 N.ar      1 CCF    0.0000
      9 H1          3.3594   -3.1026   -0.0001 H         1 CCF    0.0000
     10 C6          1.2773   -3.0844   -0.0067 C.ar      1 CCF    0.0000
     11 C7          0.3834   -2.0820   -0.0077 C.ar      1 CCF    0.0000
     12 C8          1.1449   -0.8332   -0.0030 C.ar      1 CCF    0.0000
     13 C9          0.8047    0.5267   -0.0027 C.ar      1 CCF    0.0000
     14 N4         -0.3654    1.2434   -0.0007 N.ar      1 CCF    0.0000
     15 C10        -1.7217    0.6896    0.0023 C.3       1 CCF    0.0000
     16 C11        -1.9253   -0.1754   -1.2454 C.3       1 CCF    0.0000
     17 C12        -3.3014   -0.8406   -1.1774 C.3       1 CCF    0.0000
     18 N5         -3.3752   -1.7088    0.0025 N.4       1 CCF    0.0000
     19 C13        -3.2941   -0.8454    1.1855 C.3       1 CCF    0.0000
     20 C14        -1.9176   -0.1805    1.2477 C.3       1 CCF    0.0000
     21 H2         -1.3264    3.9180   -1.0287 H         1 CCF    0.0000
     22 H3         -1.8945    3.4278    0.5854 H         1 CCF    0.0000
     23 H4         -0.5542    4.5885    0.4282 H         1 CCF    0.0000
     24 H5          3.9740    1.7393    0.0091 H         1 CCF    0.0000
     25 H6          1.0312   -4.1360   -0.0098 H         1 CCF    0.0000
     26 H7         -0.6921   -2.1795   -0.0117 H         1 CCF    0.0000
     27 H8         -2.4478    1.5025    0.0052 H         1 CCF    0.0000
     28 H9         -1.8670    0.4504   -2.1359 H         1 CCF    0.0000
     29 H10        -1.1518   -0.9423   -1.2870 H         1 CCF    0.0000
     30 H11        -4.0722   -0.0728   -1.1112 H         1 CCF    0.0000
     31 H12        -3.4608   -1.4363   -2.0762 H         1 CCF    0.0000
     32 H13        -4.2977   -2.1175    0.0045 H         1 CCF    0.0000
     33 H14        -4.0653   -0.0773    1.1272 H         1 CCF    0.0000
     34 H15        -3.4480   -1.4448    2.0829 H         1 CCF    0.0000
     35 H16        -1.1439   -0.9476    1.2814 H         1 CCF    0.0000
     36 H17        -1.8538    0.4417    2.1404 H         1 CCF    0.0000
@<TRIPOS>BOND
     1    1    2 1
     2    2    3 ar
     3    3    4 ar
     4    4    5 ar
     5    5    6 ar
     6    6    7 ar
     7    7    8 ar
     8    8    9 1
     9    8   10 ar
    10   10   11 ar
    11   11   12 ar
    12    7   12 ar
    13   12   13 ar
    14    4   13 ar
    15   13   14 ar
    16    2   14 ar
    17   14   15 1
    18   15   16 1
    19   16   17 1
    20   17   18 1
    21   18   19 1
    22   19   20 1
    23   15   20 1
    24    1   21 1
    25    1   22 1
    26    1   23 1
    27    5   24 1
    28   10   25 1
    29   11   26 1
    30   15   27 1
    31   16   28 1
    32   16   29 1
    33   17   30 1
    34   17   31 1
    35   18   32 1
    36   19   33 1
    37   19   34 1
    38   20   35 1
    39   20   36 1
@<TRIPOS>SUBSTRUCTURE
     1 CCF     1 RESIDUE           4 A     CCF     0 ROOT
@<TRIPOS>MOLECULE
smiles:CC(C)N1CCC[C@H...
56 60 1 0 0
SMALL
NO_CHARGES


@<TRIPOS>ATOM
      1 C1         -4.7117    2.0015   -0.7431 C.3       1 CCG    0.0000
      2 C2         -5.5105    1.1729    0.2649 C.3       1 CCG    0.0000
      3 C3         -7.0049    1.4398    0.0741 C.3       1 CCG    0.0000
      4 N1         -5.2369   -0.2545    0.0516 N.4       1 CCG    0.0000
      5 C4         -6.0181   -0.9934    1.0672 C.3       1 CCG    0.0000
      6 C5         -5.1160   -2.1235    1.5967 C.3       1 CCG    0.0000
      7 C6         -3.7759   -1.9567    0.8441 C.3       1 CCG    0.0000
      8 C7         -3.8098   -0.4724    0.4012 C.3       1 CCG    0.0000
      9 H1         -3.5104    0.1807    1.2209 H         1 CCG    0.0000
     10 C8         -2.9253   -0.2554   -0.7996 C.2       1 CCG    0.0000
     11 O1         -3.4044    0.1360   -1.8428 O.2       1 CCG    0.0000
     12 N2         -1.6020   -0.4961   -0.7141 N.am      1 CCG    0.0000
     13 C9         -0.7269   -0.2892   -1.8760 C.3       1 CCG    0.0000
     14 C10         0.4245    0.6351   -1.4678 C.3       1 CCG    0.0000
     15 C11         1.1329    0.0507   -0.2435 C.3       1 CCG    0.0000
     16 N3          2.2553    0.9151    0.1297 N.ar      1 CCG    0.0000
     17 C12         2.1782    2.2263    0.4896 C.ar      1 CCG    0.0000
     18 N4          3.3663    2.6845    0.7571 N.ar      1 CCG    0.0000
     19 C13         4.2826    1.6982    0.5864 C.ar      1 CCG    0.0000
     20 C14         5.6727    1.6213    0.7269 C.ar      1 CCG    0.0000
     21 N5          6.3181    0.5030    0.4874 N.ar      1 CCG    0.0000
     22 C15         5.6981   -0.6101    0.1019 C.ar      1 CCG    0.0000
     23 N6          6.1491   -1.8734   -0.2010 N.ar      1 CCG    0.0000
     24 H2          7.0769   -2.1546   -0.1717 H         1 CCG    0.0000
     25 C16         5.0967   -2.6757   -0.5495 C.ar      1 CCG    0.0000
     26 C17         3.9517   -1.9768   -0.4863 C.ar      1 CCG    0.0000
     27 C18         4.3035   -0.6213   -0.0638 C.ar      1 CCG    0.0000
     28 C19         3.5770    0.5511    0.1868 C.ar      1 CCG    0.0000
     29 C20         0.1475   -0.0381    0.9241 C.3       1 CCG    0.0000
     30 C21        -1.0061   -0.9647    0.5445 C.3       1 CCG    0.0000
     31 H3         -4.9999    3.0496   -0.6615 H         1 CCG    0.0000
     32 H4         -3.6467    1.9003   -0.5339 H         1 CCG    0.0000
     33 H5         -4.9192    1.6451   -1.7521 H         1 CCG    0.0000
     34 H6         -5.2181    1.4517    1.2773 H         1 CCG    0.0000
     35 H7         -7.2974    1.1611   -0.9383 H         1 CCG    0.0000
     36 H8         -7.5741    0.8495    0.7922 H         1 CCG    0.0000
     37 H9         -7.2080    2.4990    0.2323 H         1 CCG    0.0000
     38 H10        -6.2931   -0.3247    1.8829 H         1 CCG    0.0000
     39 H11        -6.9137   -1.4157    0.6117 H         1 CCG    0.0000
     40 H12        -4.9631   -2.0139    2.6704 H         1 CCG    0.0000
     41 H13        -5.5567   -3.0952    1.3738 H         1 CCG    0.0000
     42 H14        -2.9336   -2.1411    1.5108 H         1 CCG    0.0000
     43 H15        -3.7353   -2.6169   -0.0222 H         1 CCG    0.0000
     44 H16        -0.3265   -1.2474   -2.2071 H         1 CCG    0.0000
     45 H17        -1.2955    0.1705   -2.6844 H         1 CCG    0.0000
     46 H18         1.1328    0.7198   -2.2919 H         1 CCG    0.0000
     47 H19         0.0301    1.6214   -1.2235 H         1 CCG    0.0000
     48 H20         1.5053   -0.9458   -0.4807 H         1 CCG    0.0000
     49 H21         1.2655    2.8012    0.5446 H         1 CCG    0.0000
     50 H22         6.2242    2.4965    1.0371 H         1 CCG    0.0000
     51 H23         5.1752   -3.7149   -0.8331 H         1 CCG    0.0000
     52 H24         2.9604   -2.3451   -0.7058 H         1 CCG    0.0000
     53 H25         0.6587   -0.4325    1.8023 H         1 CCG    0.0000
     54 H26        -0.2443    0.9546    1.1458 H         1 CCG    0.0000
     55 H27        -1.7586   -0.9532    1.3330 H         1 CCG    0.0000
     56 H28        -0.6308   -1.9791    0.4095 H         1 CCG    0.0000
@<TRIPOS>BOND
     1    1    2 1
     2    2    3 1
     3    2    4 1
     4    4    5 1
     5    5    6 1
     6    6    7 1
     7    7    8 1
     8    8    9 1
     9    4    8 1
    10    8   10 1
    11   10   11 2
    12   10   12 am
    13   12   13 1
    14   13   14 1
    15   14   15 1
    16   15   16 1
    17   16   17 ar
    18   17   18 ar
    19   18   19 ar
    20   19   20 ar
    21   20   21 ar
    22   21   22 ar
    23   22   23 ar
    24   23   24 1
    25   23   25 ar
    26   25   26 ar
    27   26   27 ar
    28   22   27 ar
    29   27   28 ar
    30   19   28 ar
    31   16   28 ar
    32   15   29 1
    33   29   30 1
    34   12   30 1
    35    1   31 1
    36    1   32 1
    37    1   33 1
    38    2   34 1
    39    3   35 1
    40    3   36 1
    41    3   37 1
    42    5   38 1
    43    5   39 1
    44    6   40 1
    45    6   41 1
    46    7   42 1
    47    7   43 1
    48   13   44 1
    49   13   45 1
    50   14   46 1
    51   14   47 1
    52   15   48 1
    53   17   49 1
    54   20   50 1
    55   25   51 1
    56   26   52 1
    57   29   53 1
    58   29   54 1
    59   30   55 1
    60   30   56 1
@<TRIPOS>SUBSTRUCTURE
     1 CCG     1 RESIDUE           4 A     CCG     0 ROOT
@<TRIPOS>MOLECULE
smiles:CC1(n2cnc3cnc4...
42 45 1 0 0
SMALL
NO_CHARGES


@<TRIPOS>ATOM
      1 C1          0.6283   -0.4472   -2.7875 C.3       1 CCH    0.0000
      2 C2         -0.1230    0.0005   -1.5321 C.3       1 CCH    0.0000
      3 N1          0.7230    0.9100   -0.7554 N.ar      1 CCH    0.0000
      4 C3          0.4805    2.2283   -0.5143 C.ar      1 CCH    0.0000
      5 N2          1.4372    2.7309    0.2105 N.ar      1 CCH    0.0000
      6 C4          2.3552    1.7689    0.4815 C.ar      1 CCH    0.0000
      7 C5          3.5570    1.7395    1.1977 C.ar      1 CCH    0.0000
      8 N3          4.2606    0.6353    1.2975 N.ar      1 CCH    0.0000
      9 C6          3.8790   -0.5075    0.7314 C.ar      1 CCH    0.0000
     10 N4          4.4355   -1.7646    0.6975 N.ar      1 CCH    0.0000
     11 H1          5.2684   -2.0158    1.1264 H         1 CCH    0.0000
     12 C7          3.6415   -2.6092   -0.0296 C.ar      1 CCH    0.0000
     13 C8          2.5661   -1.9447   -0.4829 C.ar      1 CCH    0.0000
     14 C9          2.6852   -0.5670   -0.0061 C.ar      1 CCH    0.0000
     15 C10         1.9025    0.5891   -0.1321 C.ar      1 CCH    0.0000
     16 C11        -1.4096    0.7228   -1.9382 C.3       1 CCH    0.0000
     17 C12        -2.1416    1.1998   -0.6799 C.3       1 CCH    0.0000
     18 N5         -2.3505    0.0497    0.2103 N.pl3     1 CCH    0.0000
     19 S1         -3.8638   -0.3173    0.7737 S.o2      1 CCH    0.0000
     20 C13        -4.5124   -1.4462   -0.4894 C.3       1 CCH    0.0000
     21 O1         -3.5905   -0.9960    1.9919 O.2       1 CCH    0.0000
     22 O2         -4.5254    0.9399    0.7417 O.2       1 CCH    0.0000
     23 C14        -1.1912   -0.7688    0.5908 C.3       1 CCH    0.0000
     24 C15        -0.4701   -1.2238   -0.6819 C.3       1 CCH    0.0000
     25 H2          1.5449   -0.9613   -2.4985 H         1 CCH    0.0000
     26 H3         -0.0010   -1.1240   -3.3655 H         1 CCH    0.0000
     27 H4          0.8760    0.4246   -3.3930 H         1 CCH    0.0000
     28 H5         -0.3789    2.7758   -0.8721 H         1 CCH    0.0000
     29 H6          3.9120    2.6403    1.6762 H         1 CCH    0.0000
     30 H7          3.8488   -3.6533   -0.2119 H         1 CCH    0.0000
     31 H8          1.7662   -2.3500   -1.0849 H         1 CCH    0.0000
     32 H9         -1.1632    1.5811   -2.5632 H         1 CCH    0.0000
     33 H10        -2.0506    0.0390   -2.4947 H         1 CCH    0.0000
     34 H11        -1.5396    1.9520   -0.1700 H         1 CCH    0.0000
     35 H12        -3.1053    1.6267   -0.9575 H         1 CCH    0.0000
     36 H13        -3.8685   -2.3230   -0.5582 H         1 CCH    0.0000
     37 H14        -5.5209   -1.7566   -0.2159 H         1 CCH    0.0000
     38 H15        -4.5376   -0.9374   -1.4530 H         1 CCH    0.0000
     39 H16        -0.5117   -0.1772    1.2043 H         1 CCH    0.0000
     40 H17        -1.5278   -1.6407    1.1517 H         1 CCH    0.0000
     41 H18        -1.1201   -1.8892   -1.2501 H         1 CCH    0.0000
     42 H19         0.4452   -1.7509   -0.4128 H         1 CCH    0.0000
@<TRIPOS>BOND
     1    1    2 1
     2    2    3 1
     3    3    4 ar
     4    4    5 ar
     5    5    6 ar
     6    6    7 ar
     7    7    8 ar
     8    8    9 ar
     9    9   10 ar
    10   10   11 1
    11   10   12 ar
    12   12   13 ar
    13   13   14 ar
    14    9   14 ar
    15   14   15 ar
    16    6   15 ar
    17    3   15 ar
    18    2   16 1
    19   16   17 1
    20   17   18 1
    21   18   19 1
    22   19   20 1
    23   19   21 2
    24   19   22 2
    25   18   23 1
    26   23   24 1
    27    2   24 1
    28    1   25 1
    29    1   26 1
    30    1   27 1
    31    4   28 1
    32    7   29 1
    33   12   30 1
    34   13   31 1
    35   16   32 1
    36   16   33 1
    37   17   34 1
    38   17   35 1
    39   20   36 1
    40   20   37 1
    41   20   38 1
    42   23   39 1
    43   23   40 1
    44   24   41 1
    45   24   42 1
@<TRIPOS>SUBSTRUCTURE
     1 CCH     1 RESIDUE           4 A     CCH     0 ROOT
@<TRIPOS>MOLECULE
smiles:Cn1cc(Nc2nccc(...
49 53 1 0 0
SMALL
NO_CHARGES


@<TRIPOS>ATOM
      1 C1          7.6499    2.3655    0.2253 C.3       1 CCI    0.0000
      2 N1          6.4909    1.4797    0.0890 N.ar      1 CCI    0.0000
      3 C2          5.2441    1.7130    0.5765 C.ar      1 CCI    0.0000
      4 C3          4.4665    0.6539    0.2358 C.ar      1 CCI    0.0000
      5 N2          3.1025    0.4931    0.5458 N.pl3     1 CCI    0.0000
      6 C4          2.4285   -0.6434    0.1337 C.ar      1 CCI    0.0000
      7 N3          3.0828   -1.5699   -0.5517 N.ar      1 CCI    0.0000
      8 C5          2.4720   -2.6712   -0.9628 C.ar      1 CCI    0.0000
      9 C6          1.1340   -2.8513   -0.6702 C.ar      1 CCI    0.0000
     10 C7          0.4707   -1.8581    0.0534 C.ar      1 CCI    0.0000
     11 N4         -0.8709   -1.9965    0.3699 N.3       1 CCI    0.0000
     12 C8         -1.2527   -0.7959    1.1224 C.3       1 CCI    0.0000
     13 C9         -2.7709   -0.8098    1.3644 C.3       1 CCI    0.0000
     14 H1         -3.0873   -0.0376    2.0657 H         1 CCI    0.0000
     15 C10        -3.1547   -2.2330    1.8366 C.3       1 CCI    0.0000
     16 C11        -3.3832   -3.0253    0.5314 C.3       1 CCI    0.0000
     17 C12        -3.1142   -2.0004   -0.5968 C.3       1 CCI    0.0000
     18 H2         -3.7184   -2.1881   -1.4844 H         1 CCI    0.0000
     19 C13        -1.6067   -1.9883   -0.8997 C.3       1 CCI    0.0000
     20 N5         -3.4189   -0.6722    0.0350 N.am      1 CCI    0.0000
     21 C14        -4.1090    0.3656   -0.4781 C.2       1 CCI    0.0000
     22 O1         -4.5769    0.2900   -1.5944 O.2       1 CCI    0.0000
     23 C15        -4.2993    1.6198    0.3354 C.3       1 CCI    0.0000
     24 H3         -4.4082    1.4713    1.4097 H         1 CCI    0.0000
     25 C16        -5.0903    2.7630   -0.3035 C.3       1 CCI    0.0000
     26 C17        -3.5737    2.8827   -0.1333 C.3       1 CCI    0.0000
     27 F1         -3.1012    3.7587    0.8498 F         1 CCI    0.0000
     28 F2         -2.7848    2.7849   -1.2844 F         1 CCI    0.0000
     29 N6          1.1467   -0.7805    0.4389 N.ar      1 CCI    0.0000
     30 C18         5.2629   -0.2514   -0.4804 C.ar      1 CCI    0.0000
     31 N7          6.4700    0.2451   -0.5724 N.ar      1 CCI    0.0000
     32 H4          8.1927    2.1157    1.1369 H         1 CCI    0.0000
     33 H5          8.3070    2.2391   -0.6351 H         1 CCI    0.0000
     34 H6          7.3121    3.4006    0.2756 H         1 CCI    0.0000
     35 H7          4.9293    2.5826    1.1342 H         1 CCI    0.0000
     36 H8          2.6351    1.1787    1.0481 H         1 CCI    0.0000
     37 H9          3.0142   -3.4200   -1.5211 H         1 CCI    0.0000
     38 H10         0.6127   -3.7400   -0.9941 H         1 CCI    0.0000
     39 H11        -0.7317   -0.7855    2.0797 H         1 CCI    0.0000
     40 H12        -0.9834    0.0925    0.5512 H         1 CCI    0.0000
     41 H13        -2.3416   -2.6749    2.4125 H         1 CCI    0.0000
     42 H14        -4.0693   -2.2036    2.4289 H         1 CCI    0.0000
     43 H15        -2.6828   -3.8578    0.4641 H         1 CCI    0.0000
     44 H16        -4.4105   -3.3863    0.4804 H         1 CCI    0.0000
     45 H17        -1.3598   -1.1011   -1.4830 H         1 CCI    0.0000
     46 H18        -1.3420   -2.8815   -1.4655 H         1 CCI    0.0000
     47 H19        -5.4730    2.6080   -1.3123 H         1 CCI    0.0000
     48 H20        -5.7192    3.3669    0.3505 H         1 CCI    0.0000
     49 H21         4.9348   -1.1954   -0.8898 H         1 CCI    0.0000
@<TRIPOS>BOND
     1    1    2 1
     2    2    3 ar
     3    3    4 ar
     4    4    5 1
     5    5    6 1
     6    6    7 ar
     7    7    8 ar
     8    8    9 ar
     9    9   10 ar
    10   10   11 1
    11   11   12 1
    12   12   13 1
    13   13   14 1
    14   13   15 1
    15   15   16 1
    16   16   17 1
    17   17   18 1
    18   17   19 1
    19   11   19 1
    20   17   20 1
    21   13   20 1
    22   20   21 am
    23   21   22 2
    24   21   23 1
    25   23   24 1
    26   23   25 1
    27   25   26 1
    28   23   26 1
    29   26   27 1
    30   26   28 1
    31   10   29 ar
    32    6   29 ar
    33    4   30 ar
    34   30   31 ar
    35    2   31 ar
    36    1   32 1
    37    1   33 1
    38    1   34 1
    39    3   35 1
    40    5   36 1
    41    8   37 1
    42    9   38 1
    43   12   39 1
    44   12   40 1
    45   15   41 1
    46   15   42 1
    47   16   43 1
    48   16   44 1
    49   19   45 1
    50   19   46 1
    51   25   47 1
    52   25   48 1
    53   30   49 1
@<TRIPOS>SUBSTRUCTURE
     1 CCI     1 RESIDUE           4 A     CCI     0 ROOT
