CHEMBL4638316


 22 24  0  0  0  0  0  0  0  0999 V2000
   -1.1175    1.0913   -0.9837 C   0  0  0  0  0
   -1.6418    0.7629    1.3253 C   0  0  0  0  0
   -2.4962    2.6310    0.2130 C   0  0  0  0  0
   -1.8882    2.2581   -0.9437 C   0  0  0  0  0
   -2.1770    3.2142   -1.8918 C   0  0  0  0  0
   -2.9795    4.1350   -1.2131 C   0  0  0  0  0
    0.4895   -0.4690   -2.1807 C   0  0  0  0  0
    0.5369   -0.9431   -3.6206 C   0  0  0  0  0
   -0.0210    0.1951   -4.4603 C   0  0  0  0  0
   -0.8336    1.0526   -3.5114 C   0  0  0  0  0
    1.8842   -0.0047   -1.7713 C   0  0  0  0  0
    2.2913    1.3925    0.2828 C   0  0  0  0  0
    2.4615    2.6215   -0.5529 C   0  0  0  0  0
    1.4042    3.5930   -0.2597 C   0  0  0  0  0
    1.9313   -1.0785    0.4944 C   0  0  0  0  0
   -1.0187    0.3677    0.1723 N   0  0  0  0  0
   -2.3879    1.9053    1.3514 N   0  0  0  0  0
   -3.1749    3.7776    0.0805 N   0  0  0  0  0
   -0.4387    0.6502   -2.1738 N   0  0  0  0  0
    1.9947    0.1248   -0.3232 N   0  0  0  0  0
    0.5728    4.3635   -0.0267 N   0  0  0  0  0
    2.4280    1.4786    1.5336 O   0  0  0  0  0
  1 19  1  0  0  0
  2 16  1  0  0  0
  3 17  1  0  0  0
  4  5  1  0  0  0
  4  1  1  0  0  0
  6 18  1  0  0  0
  7 19  1  0  0  0
  7  8  1  0  0  0
  7 11  1  0  0  0
  8  9  1  0  0  0
  9 10  1  0  0  0
 10 19  1  0  0  0
 11 20  1  0  0  0
 13 12  1  0  0  0
 13 14  1  0  0  0
 15 20  1  0  0  0
 18  3  1  0  0  0
 20 12  1  0  0  0
  1 16  2  0  0  0
  2 17  2  0  0  0
  3  4  2  0  0  0
  5  6  2  0  0  0
 12 22  2  0  0  0
 14 21  3  0  0  0
M  END
> <rmsd>
0.794227779

$$$$
CHEMBL3689522


 24 27  0  0  0  0  0  0  0  0999 V2000
    2.1768   -1.4424    3.9727 C   0  0  0  0  0
    1.0433   -0.4432    4.0603 C   0  0  0  0  0
    0.4583   -0.2090    2.6692 C   0  0  0  0  0
   -0.8080    1.6108    3.9011 C   0  0  0  0  0
    0.4565    1.9402    4.7099 C   0  0  0  0  0
    0.1101    2.2638    6.1202 C   0  0  0  0  0
    0.6395    3.6104    5.7576 C   0  0  0  0  0
    1.6020    3.9328    3.2617 C   0  0  0  0  0
    1.8847    3.1870    2.0008 C   0  0  0  0  0
    1.1836    3.8027    0.8703 C   0  0  0  0  0
    1.5604    0.8719    4.6311 C   0  0  0  0  0
   -1.1294    1.2651    1.4107 C   0  0  0  0  0
   -1.5300    0.7747   -0.8972 C   0  0  0  0  0
   -2.5216    2.6620    0.0560 C   0  0  0  0  0
   -3.1394    4.2305    1.3555 C   0  0  0  0  0
   -2.3299    3.3946    2.1275 C   0  0  0  0  0
   -1.9513    2.3921    1.2610 C   0  0  0  0  0
   -0.4746    0.9250    2.6502 N   0  0  0  0  0
    0.9855    3.2721    4.3664 N   0  0  0  0  0
    0.6313    4.2885   -0.0231 N   0  0  0  0  0
   -0.9425    0.4824    0.3038 N   0  0  0  0  0
   -2.3270    1.8739   -1.0276 N   0  0  0  0  0
   -3.2567    3.7811    0.0818 N   0  0  0  0  0
    1.9444    5.1402    3.3684 O   0  0  0  0  0
  1  2  1  0  0  0
  2  3  1  0  0  0
  3 18  1  0  0  0
  4 18  1  0  0  0
  4  5  1  0  0  0
  5  6  1  0  0  0
  5 11  1  0  0  0
  5 19  1  0  0  0
  6  7  1  0  0  0
  7 19  1  0  0  0
  9  8  1  0  0  0
  9 10  1  0  0  0
 11  2  1  0  0  0
 13 21  1  0  0  0
 14 22  1  0  0  0
 14 23  1  0  0  0
 16 17  1  0  0  0
 17 12  1  0  0  0
 18 12  1  0  0  0
 19  8  1  0  0  0
 23 15  1  0  0  0
  8 24  2  0  0  0
 12 21  2  0  0  0
 13 22  2  0  0  0
 15 16  2  0  0  0
 17 14  2  0  0  0
 10 20  3  0  0  0
M  END
> <rmsd>
0.847083986

$$$$
CHEMBL4062946


 20 22  0  0  0  0  0  0  0  0999 V2000
   -0.2378    4.1743    0.0000 N   0  0  0  0  0
    0.8130    2.0466    0.1053 N   0  0  0  0  0
   -2.6642    4.4039    0.0339 N   0  0  0  0  0
   -4.0100    7.8417   -0.3577 N   0  0  0  0  0
   -0.6736    0.1683    0.2464 N   0  0  0  0  0
    0.8978    3.4079    0.0225 C   0  0  0  0  0
   -0.4167    1.4798    0.1638 C   0  0  0  0  0
   -1.5531    2.2196    0.1430 C   0  0  0  0  0
   -1.4789    3.6046    0.0604 C   0  0  0  0  0
   -2.6302    5.8571   -0.0230 C   0  0  0  0  0
   -2.2226    6.4269    1.3375 C   0  0  0  0  0
   -2.2231    7.9536    1.2962 C   0  0  0  0  0
   -3.6078    8.4585    0.9037 C   0  0  0  0  0
   -4.0083    6.3818   -0.4172 C   0  0  0  0  0
   -4.4880    8.6648   -1.4397 C   0  0  0  0  0
   -4.5915    8.1919   -2.8336 C   0  0  0  0  0
   -4.1039    7.0369   -3.2658 C   0  0  0  0  0
   -2.6240    1.3600    0.2154 C   0  0  0  0  0
   -2.0289    0.0954    0.2780 C   0  0  0  0  0
   -4.8295    9.8545   -1.2038 O   0  0  0  0  0
  4 15  1  0  0  0
  5  7  1  0  0  0
  6  2  1  0  0  0
  7  8  1  0  0  0
  8 18  1  0  0  0
  9  3  1  0  0  0
  9  1  1  0  0  0
 10  3  1  0  0  0
 10 11  1  0  0  0
 11 12  1  0  0  0
 12 13  1  0  0  0
 13  4  1  0  0  0
 14  4  1  0  0  0
 14 10  1  0  0  0
 15 16  1  0  0  0
 19  5  1  0  0  0
  6  1  2  0  0  0
  7  2  2  0  0  0
  8  9  2  0  0  0
 15 20  2  0  0  0
 16 17  2  0  0  0
 18 19  2  0  0  0
M  END
> <rmsd>
0.0967325717

$$$$
CHEMBL4062806


 21 23  0  0  0  0  0  0  0  0999 V2000
   -0.2379    4.1744    0.0007 N   0  0  0  0  0
    0.8128    2.0467    0.1063 N   0  0  0  0  0
   -2.6643    4.4041    0.0343 N   0  0  0  0  0
   -4.0863    7.8444   -0.2423 N   0  0  0  0  0
   -0.6736    0.1683    0.2471 N   0  0  0  0  0
    0.8976    3.4080    0.0234 C   0  0  0  0  0
   -0.4168    1.4799    0.1644 C   0  0  0  0  0
   -1.5532    2.2196    0.1431 C   0  0  0  0  0
   -1.4790    3.6045    0.0604 C   0  0  0  0  0
   -2.6299    5.8572   -0.0214 C   0  0  0  0  0
   -2.2061    6.4278    1.3351 C   0  0  0  0  0
   -2.2547    7.9636    1.3867 C   0  0  0  0  0
   -2.8907    8.5929    0.1457 C   0  0  0  0  0
   -4.0119    6.3872   -0.3997 C   0  0  0  0  0
   -5.3333    8.5347   -0.4206 C   0  0  0  0  0
   -6.5512    7.7938   -0.7897 C   0  0  0  0  0
   -7.7190    8.3997   -0.9623 C   0  0  0  0  0
   -0.8571    8.5146    1.5746 C   0  0  0  0  0
   -2.6241    1.3600    0.2153 C   0  0  0  0  0
   -2.0289    0.0954    0.2783 C   0  0  0  0  0
   -5.3867    9.7859   -0.2609 O   0  0  0  0  0
  4 15  1  0  0  0
  5  7  1  0  0  0
  6  2  1  0  0  0
  7  8  1  0  0  0
  8 19  1  0  0  0
  9  3  1  0  0  0
  9  1  1  0  0  0
 10  3  1  0  0  0
 10 11  1  0  0  0
 11 12  1  0  0  0
 12 13  1  0  0  0
 12 18  1  0  0  0
 13  4  1  0  0  0
 14  4  1  0  0  0
 14 10  1  0  0  0
 15 16  1  0  0  0
 20  5  1  0  0  0
  6  1  2  0  0  0
  7  2  2  0  0  0
  8  9  2  0  0  0
 15 21  2  0  0  0
 16 17  2  0  0  0
 19 20  2  0  0  0
M  END
> <rmsd>
0.0967181772

$$$$
CHEMBL4085457


 21 23  0  0  0  0  0  0  0  0999 V2000
   -7.5811    6.2687    0.5108 C   0  0  0  0  0
   -6.8017    5.0493    0.0539 C   0  0  0  0  0
   -5.7691    5.4746   -0.9909 C   0  0  0  0  0
   -4.7611    4.3498   -1.2160 C   0  0  0  0  0
   -4.0273    3.9476    0.0731 C   0  0  0  0  0
   -4.7102    4.4516    1.3476 C   0  0  0  0  0
   -6.9331    3.6028    2.1307 C   0  0  0  0  0
   -8.3783    3.4060    1.9277 C   0  0  0  0  0
   -9.1150    2.6843    2.7624 C   0  0  0  0  0
   -1.4968    3.5947    0.0584 C   0  0  0  0  0
   -1.5591    2.1989    0.1428 C   0  0  0  0  0
   -2.6124    1.3145    0.2172 C   0  0  0  0  0
   -2.0004    0.0600    0.2808 C   0  0  0  0  0
   -0.4114    1.4713    0.1643 C   0  0  0  0  0
    0.8833    3.4114    0.0244 C   0  0  0  0  0
   -6.1646    4.3898    1.2036 N   0  0  0  0  0
   -2.6578    4.4345    0.0319 N   0  0  0  0  0
   -0.6480    0.1557    0.2485 N   0  0  0  0  0
    0.8116    2.0508    0.1066 N   0  0  0  0  0
   -0.2585    4.1666    0.0012 N   0  0  0  0  0
   -6.3640    3.0700    3.1235 O   0  0  0  0  0
  2  1  1  0  0  0
  2  3  1  0  0  0
  2 16  1  0  0  0
  3  4  1  0  0  0
  4  5  1  0  0  0
  5  6  1  0  0  0
  5 17  1  0  0  0
  6 16  1  0  0  0
  7  8  1  0  0  0
 10 20  1  0  0  0
 11 12  1  0  0  0
 13 18  1  0  0  0
 14 11  1  0  0  0
 15 19  1  0  0  0
 16  7  1  0  0  0
 17 10  1  0  0  0
 18 14  1  0  0  0
  7 21  2  0  0  0
  8  9  2  0  0  0
 10 11  2  0  0  0
 12 13  2  0  0  0
 14 19  2  0  0  0
 15 20  2  0  0  0
M  END
> <rmsd>
0.0940026864

$$$$
CHEMBL4291735


 25 28  0  0  0  0  0  0  0  0999 V2000
   -3.6406    4.0480    1.0312 C   0  0  0  0  0
   -3.0433    6.3916    0.3233 C   0  0  0  0  0
   -2.6785    7.3423   -0.7653 C   0  0  0  0  0
   -1.1925    7.4390   -0.8913 C   0  0  0  0  0
   -1.0978    5.3988   -2.4066 C   0  0  0  0  0
    0.0201    4.4731   -2.8806 C   0  0  0  0  0
    1.2884    5.1614   -2.4190 C   0  0  0  0  0
    0.9948    6.4149   -1.6458 C   0  0  0  0  0
    2.6453    4.4940   -2.4026 C   0  0  0  0  0
    2.2532    5.4052   -3.5561 C   0  0  0  0  0
   -0.1395    2.0349   -3.2666 C   0  0  0  0  0
   -0.2544    2.8887   -0.8873 C   0  0  0  0  0
   -0.0090    3.6679    1.3630 C   0  0  0  0  0
   -0.8635    1.5284    0.9848 C   0  0  0  0  0
   -0.7572    1.6900   -0.3616 C   0  0  0  0  0
   -1.2344    0.5404   -0.9523 C   0  0  0  0  0
   -1.6040   -0.2712    0.1228 C   0  0  0  0  0
   -3.2991    5.0225    0.0091 N   0  0  0  0  0
   -0.4569    6.4808   -1.6620 N   0  0  0  0  0
   -0.1273    3.1308   -2.3100 N   0  0  0  0  0
    0.1053    3.8545    0.0123 N   0  0  0  0  0
   -0.4979    2.4953    1.8591 N   0  0  0  0  0
   -1.3771    0.3361    1.3135 N   0  0  0  0  0
   -3.0979    6.7973    1.5151 O   0  0  0  0  0
   -0.5852    8.3559   -0.2764 O   0  0  0  0  0
  1 18  1  0  0  0
  3  2  1  0  0  0
  3  4  1  0  0  0
  4 19  1  0  0  0
  5 19  1  0  0  0
  5  6  1  0  0  0
  6  7  1  0  0  0
  6 20  1  0  0  0
  7  8  1  0  0  0
  7  9  1  0  0  0
  8 19  1  0  0  0
  9 10  1  0  0  0
 10  7  1  0  0  0
 11 20  1  0  0  0
 13 21  1  0  0  0
 14 22  1  0  0  0
 15 16  1  0  0  0
 15 12  1  0  0  0
 17 23  1  0  0  0
 18  2  1  0  0  0
 20 12  1  0  0  0
 23 14  1  0  0  0
  2 24  2  0  0  0
  4 25  2  0  0  0
 12 21  2  0  0  0
 13 22  2  0  0  0
 14 15  2  0  0  0
 16 17  2  0  0  0
M  END
> <rmsd>
0.703434587

$$$$
CHEMBL4083165


 21 23  0  0  0  0  0  0  0  0999 V2000
   -0.2381    4.1741    0.0009 N   0  0  0  0  0
    0.8129    2.0467    0.1088 N   0  0  0  0  0
   -2.6641    4.4031    0.0334 N   0  0  0  0  0
   -3.7864    7.8995    0.5481 N   0  0  0  0  0
   -0.6734    0.1681    0.2490 N   0  0  0  0  0
    0.8975    3.4080    0.0261 C   0  0  0  0  0
   -0.4167    1.4796    0.1653 C   0  0  0  0  0
   -1.5533    2.2191    0.1418 C   0  0  0  0  0
   -1.4793    3.6037    0.0556 C   0  0  0  0  0
   -2.6273    5.8515   -0.1116 C   0  0  0  0  0
   -2.8624    6.2536   -1.5780 C   0  0  0  0  0
   -2.9162    7.7746   -1.7197 C   0  0  0  0  0
   -4.0030    8.3529   -0.8213 C   0  0  0  0  0
   -3.7051    6.4609    0.7825 C   0  0  0  0  0
   -3.6319    8.8434    1.6186 C   0  0  0  0  0
   -3.3935    8.3772    2.9946 C   0  0  0  0  0
   -3.2442    9.2207    4.0077 C   0  0  0  0  0
   -1.7547    5.7254   -2.4707 C   0  0  0  0  0
   -2.6240    1.3592    0.2132 C   0  0  0  0  0
   -2.0287    0.0950    0.2783 C   0  0  0  0  0
   -3.6999   10.0807    1.3787 O   0  0  0  0  0
  4 15  1  0  0  0
  5  7  1  0  0  0
  6  2  1  0  0  0
  7  8  1  0  0  0
  8 19  1  0  0  0
  9  3  1  0  0  0
  9  1  1  0  0  0
 10  3  1  0  0  0
 10 11  1  0  0  0
 11 12  1  0  0  0
 11 18  1  0  0  0
 12 13  1  0  0  0
 13  4  1  0  0  0
 14  4  1  0  0  0
 14 10  1  0  0  0
 15 16  1  0  0  0
 20  5  1  0  0  0
  6  1  2  0  0  0
  7  2  2  0  0  0
  8  9  2  0  0  0
 15 21  2  0  0  0
 16 17  2  0  0  0
 19 20  2  0  0  0
M  END
> <rmsd>
0.0965406597

$$$$
CHEMBL4074183


 21 23  0  0  0  0  0  0  0  0999 V2000
   -0.2375    4.1742    0.0010 N   0  0  0  0  0
    0.8127    2.0463    0.1072 N   0  0  0  0  0
   -2.6640    4.4031    0.0344 N   0  0  0  0  0
   -4.9746    6.0898   -0.8037 N   0  0  0  0  0
   -0.6744    0.1683    0.2478 N   0  0  0  0  0
    0.8978    3.4076    0.0246 C   0  0  0  0  0
   -0.4171    1.4798    0.1651 C   0  0  0  0  0
   -1.5533    2.2198    0.1434 C   0  0  0  0  0
   -1.4787    3.6043    0.0583 C   0  0  0  0  0
   -2.6378    5.8547   -0.0962 C   0  0  0  0  0
   -2.2249    6.2652   -1.5154 C   0  0  0  0  0
   -3.2813    5.8590   -2.5435 C   0  0  0  0  0
   -4.6330    6.4604   -2.1748 C   0  0  0  0  0
   -4.0121    6.4328    0.2420 C   0  0  0  0  0
   -6.1271    5.2864   -0.4808 C   0  0  0  0  0
   -7.2901    5.1386   -1.3767 C   0  0  0  0  0
   -7.4732    5.8477   -2.4822 C   0  0  0  0  0
   -2.8675    6.3423   -3.9169 C   0  0  0  0  0
   -2.6245    1.3606    0.2146 C   0  0  0  0  0
   -2.0299    0.0959    0.2782 C   0  0  0  0  0
   -6.1639    4.6778    0.6220 O   0  0  0  0  0
  4 15  1  0  0  0
  5  7  1  0  0  0
  6  2  1  0  0  0
  7  8  1  0  0  0
  8 19  1  0  0  0
  9  3  1  0  0  0
  9  1  1  0  0  0
 10  3  1  0  0  0
 10 11  1  0  0  0
 11 12  1  0  0  0
 12 13  1  0  0  0
 12 18  1  0  0  0
 13  4  1  0  0  0
 14  4  1  0  0  0
 14 10  1  0  0  0
 15 16  1  0  0  0
 20  5  1  0  0  0
  6  1  2  0  0  0
  7  2  2  0  0  0
  8  9  2  0  0  0
 15 21  2  0  0  0
 16 17  2  0  0  0
 19 20  2  0  0  0
M  END
> <rmsd>
0.0965977758

$$$$
CHEMBL4069969


 21 23  0  0  0  0  0  0  0  0999 V2000
   -0.2383    4.1747    0.0014 N   0  0  0  0  0
    0.8124    2.0469    0.1080 N   0  0  0  0  0
   -2.6646    4.4033    0.0340 N   0  0  0  0  0
   -3.2595    6.4140    2.3343 N   0  0  0  0  0
   -0.6743    0.1686    0.2482 N   0  0  0  0  0
    0.8972    3.4082    0.0253 C   0  0  0  0  0
   -0.4174    1.4801    0.1650 C   0  0  0  0  0
   -1.5537    2.2198    0.1426 C   0  0  0  0  0
   -1.4793    3.6045    0.0599 C   0  0  0  0  0
   -2.6346    5.8621   -0.0119 C   0  0  0  0  0
   -4.0156    6.4297   -0.3673 C   0  0  0  0  0
   -5.0912    6.1813    0.7020 C   0  0  0  0  0
   -4.5155    5.7203    2.0431 C   0  0  0  0  0
   -2.1813    6.4305    1.3378 C   0  0  0  0  0
   -3.0789    7.0975    3.5848 C   0  0  0  0  0
   -4.1506    7.1040    4.5948 C   0  0  0  0  0
   -4.0169    7.7255    5.7595 C   0  0  0  0  0
   -4.4901    5.9463   -1.7250 C   0  0  0  0  0
   -2.6247    1.3604    0.2147 C   0  0  0  0  0
   -2.0297    0.0959    0.2786 C   0  0  0  0  0
   -1.9936    7.6974    3.8213 O   0  0  0  0  0
  4 15  1  0  0  0
  5  7  1  0  0  0
  6  2  1  0  0  0
  7  8  1  0  0  0
  8 19  1  0  0  0
  9  3  1  0  0  0
  9  1  1  0  0  0
 10  3  1  0  0  0
 10 11  1  0  0  0
 11 12  1  0  0  0
 11 18  1  0  0  0
 12 13  1  0  0  0
 13  4  1  0  0  0
 14  4  1  0  0  0
 14 10  1  0  0  0
 15 16  1  0  0  0
 20  5  1  0  0  0
  6  1  2  0  0  0
  7  2  2  0  0  0
  8  9  2  0  0  0
 15 21  2  0  0  0
 16 17  2  0  0  0
 19 20  2  0  0  0
M  END
> <rmsd>
0.0963881686

$$$$
CHEMBL4095629


 21 23  0  0  0  0  0  0  0  0999 V2000
   -0.2378    4.1741   -0.0001 N   0  0  0  0  0
    0.8129    2.0463    0.1050 N   0  0  0  0  0
   -2.6645    4.4037    0.0338 N   0  0  0  0  0
   -4.1042    7.8165   -0.2346 N   0  0  0  0  0
   -0.6736    0.1680    0.2462 N   0  0  0  0  0
    0.8977    3.4076    0.0222 C   0  0  0  0  0
   -0.4167    1.4796    0.1636 C   0  0  0  0  0
   -1.5532    2.2194    0.1428 C   0  0  0  0  0
   -1.4790    3.6043    0.0604 C   0  0  0  0  0
   -2.6328    5.8573   -0.0187 C   0  0  0  0  0
   -2.1893    6.4282    1.3412 C   0  0  0  0  0
   -3.2696    7.2629    2.0263 C   0  0  0  0  0
   -3.7576    8.3600    1.0830 C   0  0  0  0  0
   -3.9954    6.3776   -0.4817 C   0  0  0  0  0
   -4.6016    8.6949   -1.2567 C   0  0  0  0  0
   -4.9717    8.1666   -2.5805 C   0  0  0  0  0
   -5.4321    8.9495   -3.5476 C   0  0  0  0  0
   -5.7915    8.3671   -4.8665 C   0  0  0  0  0
   -2.6239    1.3597    0.2152 C   0  0  0  0  0
   -2.0289    0.0951    0.2779 C   0  0  0  0  0
   -4.7199    9.9294   -1.0209 O   0  0  0  0  0
  4 15  1  0  0  0
  5  7  1  0  0  0
  6  2  1  0  0  0
  7  8  1  0  0  0
  8 19  1  0  0  0
  9  3  1  0  0  0
  9  1  1  0  0  0
 10  3  1  0  0  0
 10 11  1  0  0  0
 11 12  1  0  0  0
 12 13  1  0  0  0
 13  4  1  0  0  0
 14  4  1  0  0  0
 14 10  1  0  0  0
 15 16  1  0  0  0
 18 17  1  0  0  0
 20  5  1  0  0  0
  6  1  2  0  0  0
  7  2  2  0  0  0
  8  9  2  0  0  0
 15 21  2  0  0  0
 16 17  2  0  0  0
 19 20  2  0  0  0
M  END
> <rmsd>
0.0967449248

$$$$
CHEMBL4226571


 24 27  0  0  0  0  0  0  0  0999 V2000
    0.6685   -0.2193   -2.4665 C   0  0  0  0  0
    1.1882    1.1971   -2.2980 C   0  0  0  0  0
   -0.7165    1.2855   -3.7888 C   0  0  0  0  0
   -0.6887   -0.0940   -3.1559 C   0  0  0  0  0
   -2.6912   -1.3695   -2.3717 C   0  0  0  0  0
   -4.0958   -0.8659   -2.6512 C   0  0  0  0  0
   -4.8912   -1.9663   -3.3198 C   0  0  0  0  0
   -4.3259   -0.8313   -4.1476 C   0  0  0  0  0
   -1.8398    0.5140   -0.9782 C   0  0  0  0  0
   -1.4207    0.6923    1.3624 C   0  0  0  0  0
   -2.3809    2.4948    0.2249 C   0  0  0  0  0
   -2.3566    1.8071   -0.9439 C   0  0  0  0  0
   -2.9102    2.6061   -1.9172 C   0  0  0  0  0
   -3.2386    3.7822   -1.2364 C   0  0  0  0  0
    0.4786    3.4466   -3.2401 C   0  0  0  0  0
    1.4690    4.1825   -2.4003 C   0  0  0  0  0
    0.8915    4.4647   -1.0834 C   0  0  0  0  0
    0.3536    2.0223   -3.1490 N   0  0  0  0  0
   -1.7816   -0.2483   -2.1936 N   0  0  0  0  0
   -1.3846   -0.0206    0.1933 N   0  0  0  0  0
   -1.9214    1.9632    1.3835 N   0  0  0  0  0
   -2.9148    3.7142    0.0798 N   0  0  0  0  0
    0.4359    4.6865   -0.0430 N   0  0  0  0  0
   -0.2795    4.0996   -4.0059 O   0  0  0  0  0
  1  2  1  0  0  0
  2 18  1  0  0  0
  3 18  1  0  0  0
  3  4  1  0  0  0
  4 19  1  0  0  0
  4  1  1  0  0  0
  5 19  1  0  0  0
  5  6  1  0  0  0
  6  7  1  0  0  0
  7  8  1  0  0  0
  8  6  1  0  0  0
 10 20  1  0  0  0
 11 21  1  0  0  0
 12 13  1  0  0  0
 12  9  1  0  0  0
 14 22  1  0  0  0
 16 15  1  0  0  0
 16 17  1  0  0  0
 18 15  1  0  0  0
 19  9  1  0  0  0
 22 11  1  0  0  0
  9 20  2  0  0  0
 10 21  2  0  0  0
 11 12  2  0  0  0
 13 14  2  0  0  0
 15 24  2  0  0  0
 17 23  3  0  0  0
M  END
> <rmsd>
0.725599825

$$$$
CHEMBL1630796


 25 28  0  0  0  0  0  0  0  0999 V2000
    0.8383    3.6162   -1.9269 N   0  0  0  0  0
   -0.1935    4.5993   -0.0254 N   0  0  0  0  0
   -2.5877    4.4878    0.0277 N   0  0  0  0  0
   -0.4486    2.6039   -3.7371 N   0  0  0  0  0
    1.3206    0.4968   -2.0235 N   0  0  0  0  0
    0.9318    4.2636   -0.7235 C   0  0  0  0  0
   -1.3992    4.2768   -0.5530 C   0  0  0  0  0
   -3.4840    3.9692   -0.8491 C   0  0  0  0  0
   -2.8593    3.4312   -1.9777 C   0  0  0  0  0
   -1.5194    3.6509   -1.7525 C   0  0  0  0  0
   -0.3734    3.2933   -2.4736 C   0  0  0  0  0
    0.4239    1.4823   -4.0941 C   0  0  0  0  0
    0.3414    0.3228   -3.0924 C   0  0  0  0  0
    2.7094    0.6682   -2.4319 C   0  0  0  0  0
    2.8262    1.9308   -3.2788 C   0  0  0  0  0
    1.8575    1.9105   -4.4689 C   0  0  0  0  0
    2.3983    1.0097   -5.5633 C   0  0  0  0  0
    0.9676    0.5888   -0.6277 C   0  0  0  0  0
   -0.4350    0.5882   -0.1386 C   0  0  0  0  0
   -0.7420    0.9013    1.1848 C   0  0  0  0  0
   -2.7659    0.2943   -0.2427 C   0  0  0  0  0
   -1.5542    0.2492   -0.9220 C   0  0  0  0  0
   -1.4814    2.9612   -4.7008 C   0  0  0  0  0
    1.8898    0.6934    0.2280 O   0  0  0  0  0
   -2.4064    0.7523    1.3316 S   0  0  0  0  0
  3  8  1  0  0  0
  5 18  1  0  0  0
  6  2  1  0  0  0
  7  3  1  0  0  0
  9 10  1  0  0  0
 10  7  1  0  0  0
 11  4  1  0  0  0
 11  1  1  0  0  0
 12  4  1  0  0  0
 12 13  1  0  0  0
 13  5  1  0  0  0
 14  5  1  0  0  0
 14 15  1  0  0  0
 15 16  1  0  0  0
 16 17  1  0  0  0
 16 12  1  0  0  0
 18 19  1  0  0  0
 20 25  1  0  0  0
 21 25  1  0  0  0
 22 19  1  0  0  0
 23  4  1  0  0  0
  6  1  2  0  0  0
  7  2  2  0  0  0
  8  9  2  0  0  0
 10 11  2  0  0  0
 18 24  2  0  0  0
 19 20  2  0  0  0
 21 22  2  0  0  0
M  END
> <rmsd>
0.366129845

$$$$
CHEMBL3693633


 24 27  0  0  0  0  0  0  0  0999 V2000
   -8.7260    5.1483    0.3385 O   0  0  0  0  0
   -7.9833    4.1300    0.3162 C   0  0  0  0  0
   -8.0946    3.1359    1.4265 C   0  0  0  0  0
   -9.2691    2.2831    1.2255 C   0  0  0  0  0
   -6.9101    4.9316   -1.8198 C   0  0  0  0  0
   -5.7029    4.5071   -2.6311 C   0  0  0  0  0
   -5.3841    3.0797   -2.2144 C   0  0  0  0  0
   -6.1323    2.8222   -0.9123 C   0  0  0  0  0
   -6.9035    1.4953   -1.0111 C   0  0  0  0  0
   -5.9676    0.2851   -1.0297 C   0  0  0  0  0
   -5.0526    0.3102    0.1885 C   0  0  0  0  0
   -5.1443    2.8013    0.2618 C   0  0  0  0  0
   -2.8990    1.6067    0.2063 C   0  0  0  0  0
   -0.8203    0.4197    0.2304 C   0  0  0  0  0
   -0.8077    2.7481    0.1007 C   0  0  0  0  0
   -1.4052    4.7626   -0.0139 C   0  0  0  0  0
   -2.1574    2.7905    0.1254 C   0  0  0  0  0
  -10.1961    1.6088    1.0666 N   0  0  0  0  0
   -7.0566    3.9418   -0.7702 N   0  0  0  0  0
   -4.3388    1.5822    0.2279 N   0  0  0  0  0
   -2.1906    0.4362    0.2558 N   0  0  0  0  0
   -0.1145    1.5864    0.1517 N   0  0  0  0  0
   -0.2925    3.9802    0.0133 N   0  0  0  0  0
   -2.5711    4.0637    0.0522 N   0  0  0  0  0
  2 19  1  0  0  0
  3  2  1  0  0  0
  3  4  1  0  0  0
  5 19  1  0  0  0
  5  6  1  0  0  0
  6  7  1  0  0  0
  7  8  1  0  0  0
  8  9  1  0  0  0
  8 19  1  0  0  0
  9 10  1  0  0  0
 10 11  1  0  0  0
 11 20  1  0  0  0
 12 20  1  0  0  0
 12  8  1  0  0  0
 14 21  1  0  0  0
 15 22  1  0  0  0
 15 23  1  0  0  0
 16 24  1  0  0  0
 17 13  1  0  0  0
 20 13  1  0  0  0
 24 17  1  0  0  0
  2  1  2  0  0  0
 13 21  2  0  0  0
 14 22  2  0  0  0
 16 23  2  0  0  0
 17 15  2  0  0  0
  4 18  3  0  0  0
M  END
> <rmsd>
0.403490633

$$$$
CHEMBL4225471


 22 24  0  0  0  0  0  0  0  0999 V2000
   -3.2885    0.3725    3.5668 C   0  0  0  0  0
   -4.5247    1.9597    2.1265 C   0  0  0  0  0
   -5.4364    1.5042    0.9919 C   0  0  0  0  0
   -5.7572    2.7460    0.1800 C   0  0  0  0  0
   -4.0888    3.3807    1.8176 C   0  0  0  0  0
   -4.9143    5.1299    0.1694 C   0  0  0  0  0
   -3.8417    6.1060    0.4403 C   0  0  0  0  0
   -2.3838    0.8773    1.2547 C   0  0  0  0  0
   -1.1365    0.2820    1.4921 C   0  0  0  0  0
   -0.5434   -0.2197    2.6301 C   0  0  0  0  0
    0.7123   -0.6554    2.2008 C   0  0  0  0  0
   -0.2462    0.1375    0.4738 C   0  0  0  0  0
   -1.7258    1.1337   -1.0328 C   0  0  0  0  0
   -3.3751    1.0698    2.2928 N   0  0  0  0  0
   -4.8632    3.7820    0.6598 N   0  0  0  0  0
   -2.5736    5.8283    0.3973 N   0  0  0  0  0
   -2.0844    4.5738    0.0121 N   0  0  0  0  0
   -0.8343    4.3562    0.0005 N   0  0  0  0  0
    0.8957   -0.4353    0.8757 N   0  0  0  0  0
   -0.5172    0.5516   -0.7865 N   0  0  0  0  0
   -2.6369    1.2928   -0.0243 N   0  0  0  0  0
   -5.9269    5.5201   -0.4702 O   0  0  0  0  0
  1 14  1  0  0  0
  2 14  1  0  0  0
  2  3  1  0  0  0
  3  4  1  0  0  0
  4 15  1  0  0  0
  5 15  1  0  0  0
  5  2  1  0  0  0
  6  7  1  0  0  0
  8 21  1  0  0  0
  9 10  1  0  0  0
 11 19  1  0  0  0
 12  9  1  0  0  0
 13 20  1  0  0  0
 14  8  1  0  0  0
 15  6  1  0  0  0
 17 16  1  0  0  0
 19 12  1  0  0  0
  6 22  2  0  0  0
  7 16  2  0  0  0
  8  9  2  0  0  0
 10 11  2  0  0  0
 12 20  2  0  0  0
 13 21  2  0  0  0
 17 18  2  0  0  0
M  CHG  2  17   1  18  -1
M  END
> <rmsd>
0.456271321

$$$$
CHEMBL3715588


 22 25  0  0  0  0  0  0  0  0999 V2000
   -5.8007   -1.8241    0.3164 N   0  0  0  0  0
   -3.8009   -3.1037    0.3619 N   0  0  0  0  0
   -5.8147    0.6036    0.3361 N   0  0  0  0  0
   -1.7429   -1.8666    0.3470 N   0  0  0  0  0
   -2.5961    4.4823    0.0277 N   0  0  0  0  0
   -5.1638   -3.0358    0.3346 C   0  0  0  0  0
   -3.0918   -1.9497    0.3677 C   0  0  0  0  0
   -3.7113   -0.7223    0.3465 C   0  0  0  0  0
   -5.1083   -0.6455    0.3308 C   0  0  0  0  0
   -5.5040    1.6182    1.3395 C   0  0  0  0  0
   -6.5850    1.6138    2.4169 C   0  0  0  0  0
   -7.9603    1.7904    1.7746 C   0  0  0  0  0
   -8.2172    0.6879    0.7478 C   0  0  0  0  0
   -7.1192    0.6972   -0.3133 C   0  0  0  0  0
   -2.6914    0.1988    0.2924 C   0  0  0  0  0
   -1.5206   -0.5333    0.3029 C   0  0  0  0  0
   -0.2773    0.0899    0.2402 C   0  0  0  0  0
   -0.2488    1.4933    0.1615 C   0  0  0  0  0
   -1.4464    2.2479    0.1386 C   0  0  0  0  0
   -2.6903    1.5882    0.1992 C   0  0  0  0  0
   -1.3942    3.7174    0.0496 C   0  0  0  0  0
   -0.2852    4.3124   -0.0074 O   0  0  0  0  0
  4  7  1  0  0  0
  6  2  1  0  0  0
  7  8  1  0  0  0
  8 15  1  0  0  0
  9  3  1  0  0  0
  9  1  1  0  0  0
 10  3  1  0  0  0
 10 11  1  0  0  0
 11 12  1  0  0  0
 12 13  1  0  0  0
 13 14  1  0  0  0
 14  3  1  0  0  0
 16  4  1  0  0  0
 16 17  1  0  0  0
 18 19  1  0  0  0
 19 21  1  0  0  0
 20 15  1  0  0  0
 21  5  1  0  0  0
  6  1  2  0  0  0
  7  2  2  0  0  0
  8  9  2  0  0  0
 15 16  2  0  0  0
 17 18  2  0  0  0
 19 20  2  0  0  0
 21 22  2  0  0  0
M  END
> <rmsd>
0.136097342

$$$$
CHEMBL3719354


 22 25  0  0  0  0  0  0  0  0999 V2000
    2.6609   -2.0761    0.4745 N   0  0  0  0  0
    0.5856   -3.2276    0.5740 N   0  0  0  0  0
    2.8187    0.3242    0.1613 N   0  0  0  0  0
   -1.3927   -1.8728    0.4280 N   0  0  0  0  0
   -2.5940    4.4739    0.0275 N   0  0  0  0  0
    1.9506   -3.2400    0.6011 C   0  0  0  0  0
   -0.0514   -2.0419    0.4224 C   0  0  0  0  0
    0.6426   -0.8622    0.2964 C   0  0  0  0  0
    2.0406   -0.8695    0.3109 C   0  0  0  0  0
    2.5775    1.2067   -0.9848 C   0  0  0  0  0
    3.5889    2.3497   -1.0338 C   0  0  0  0  0
    3.7275    2.9650    0.3543 C   0  0  0  0  0
    4.2070    1.9464    1.3988 C   0  0  0  0  0
    4.0284    0.4863    0.9668 C   0  0  0  0  0
   -0.3164    0.1206    0.2349 C   0  0  0  0  0
   -1.5308   -0.5323    0.3090 C   0  0  0  0  0
   -2.7320    0.1718    0.2922 C   0  0  0  0  0
   -2.6709    1.5736    0.2013 C   0  0  0  0  0
   -1.4279    2.2480    0.1374 C   0  0  0  0  0
   -0.2286    1.5082    0.1606 C   0  0  0  0  0
   -1.3865    3.7178    0.0493 C   0  0  0  0  0
   -0.2817    4.3211   -0.0078 O   0  0  0  0  0
  4  7  1  0  0  0
  6  2  1  0  0  0
  7  8  1  0  0  0
  8 15  1  0  0  0
  9  3  1  0  0  0
  9  1  1  0  0  0
 10  3  1  0  0  0
 10 11  1  0  0  0
 11 12  1  0  0  0
 12 13  1  0  0  0
 13 14  1  0  0  0
 14  3  1  0  0  0
 16  4  1  0  0  0
 16 17  1  0  0  0
 18 19  1  0  0  0
 19 21  1  0  0  0
 20 15  1  0  0  0
 21  5  1  0  0  0
  6  1  2  0  0  0
  7  2  2  0  0  0
  8  9  2  0  0  0
 15 16  2  0  0  0
 17 18  2  0  0  0
 19 20  2  0  0  0
 21 22  2  0  0  0
M  END
> <rmsd>
0.135179639

$$$$
CHEMBL3715974


 23 26  0  0  0  0  0  0  0  0999 V2000
    3.8829    2.8892   -1.3831 C   0  0  0  0  0
    3.0647    3.3400   -0.1804 C   0  0  0  0  0
    3.4786    2.5734    1.0664 C   0  0  0  0  0
    2.6275    1.3182    1.2399 C   0  0  0  0  0
    3.8641    0.4416   -0.8324 C   0  0  0  0  0
    3.4853    1.4983   -1.8593 C   0  0  0  0  0
    2.0351   -0.8767    0.2034 C   0  0  0  0  0
    1.9407   -3.2640    0.1999 C   0  0  0  0  0
   -0.0562   -2.0491    0.3130 C   0  0  0  0  0
    0.6393   -0.8647    0.2713 C   0  0  0  0  0
   -0.3180    0.1212    0.2525 C   0  0  0  0  0
   -1.5330   -0.5327    0.3029 C   0  0  0  0  0
   -2.7337    0.1719    0.2818 C   0  0  0  0  0
   -2.6714    1.5744    0.2032 C   0  0  0  0  0
   -1.4282    2.2482    0.1392 C   0  0  0  0  0
   -0.2291    1.5075    0.1585 C   0  0  0  0  0
   -1.3865    3.7181    0.0502 C   0  0  0  0  0
    2.8144    0.3244    0.1763 N   0  0  0  0  0
    2.6525   -2.0947    0.1596 N   0  0  0  0  0
    0.5776   -3.2457    0.2784 N   0  0  0  0  0
   -1.3971   -1.8783    0.3387 N   0  0  0  0  0
   -2.5938    4.4741    0.0282 N   0  0  0  0  0
   -0.2819    4.3212   -0.0071 O   0  0  0  0  0
  1  2  1  0  0  0
  2  3  1  0  0  0
  3  4  1  0  0  0
  4 18  1  0  0  0
  5 18  1  0  0  0
  5  6  1  0  0  0
  6  1  1  0  0  0
  8 19  1  0  0  0
  9 20  1  0  0  0
 10 11  1  0  0  0
 10  7  1  0  0  0
 12 21  1  0  0  0
 12 13  1  0  0  0
 14 15  1  0  0  0
 15 17  1  0  0  0
 16 11  1  0  0  0
 17 22  1  0  0  0
 18  7  1  0  0  0
 21  9  1  0  0  0
  7 19  2  0  0  0
  8 20  2  0  0  0
  9 10  2  0  0  0
 11 12  2  0  0  0
 13 14  2  0  0  0
 15 16  2  0  0  0
 17 23  2  0  0  0
M  END
> <rmsd>
0.13526544

$$$$
CHEMBL3693634


 24 27  0  0  0  0  0  0  0  0999 V2000
   -8.2295   -0.1163   -2.8411 O   0  0  0  0  0
   -7.3447    0.3652   -2.0831 C   0  0  0  0  0
   -6.3028    1.2502   -2.6884 C   0  0  0  0  0
   -5.1372    0.4568   -3.0865 C   0  0  0  0  0
   -7.7559   -1.3701   -0.3840 C   0  0  0  0  0
   -8.3941   -1.4540    0.9926 C   0  0  0  0  0
   -7.4091   -0.9406    2.0237 C   0  0  0  0  0
   -7.1206    0.5266    1.7433 C   0  0  0  0  0
   -6.5547    0.7533    0.3345 C   0  0  0  0  0
   -6.6031    2.2623    0.0880 C   0  0  0  0  0
   -5.1741    2.7678    0.1632 C   0  0  0  0  0
   -5.0867    0.3524    0.2993 C   0  0  0  0  0
   -2.8967    1.6086    0.2053 C   0  0  0  0  0
   -0.8207    0.4197    0.2352 C   0  0  0  0  0
   -0.8067    2.7479    0.0976 C   0  0  0  0  0
   -1.4046    4.7625   -0.0118 C   0  0  0  0  0
   -2.1561    2.7906    0.1211 C   0  0  0  0  0
   -4.2152   -0.1688   -3.3987 N   0  0  0  0  0
   -7.3221   -0.0019   -0.6862 N   0  0  0  0  0
   -4.3336    1.5882    0.2290 N   0  0  0  0  0
   -2.1913    0.4373    0.2604 N   0  0  0  0  0
   -0.1140    1.5859    0.1529 N   0  0  0  0  0
   -0.2915    3.9802    0.0137 N   0  0  0  0  0
   -2.5709    4.0636    0.0525 N   0  0  0  0  0
  2 19  1  0  0  0
  3  2  1  0  0  0
  3  4  1  0  0  0
  5 19  1  0  0  0
  5  6  1  0  0  0
  6  7  1  0  0  0
  7  8  1  0  0  0
  8  9  1  0  0  0
  9 10  1  0  0  0
  9 19  1  0  0  0
 10 11  1  0  0  0
 11 20  1  0  0  0
 12 20  1  0  0  0
 12  9  1  0  0  0
 14 21  1  0  0  0
 15 22  1  0  0  0
 15 23  1  0  0  0
 16 24  1  0  0  0
 17 13  1  0  0  0
 20 13  1  0  0  0
 24 17  1  0  0  0
  2  1  2  0  0  0
 13 21  2  0  0  0
 14 22  2  0  0  0
 16 23  2  0  0  0
 17 15  2  0  0  0
  4 18  3  0  0  0
M  END
> <rmsd>
0.403609663

$$$$
CHEMBL4226460


 25 28  0  0  0  0  0  0  0  0999 V2000
   -4.0817    8.4008   -2.4265 C   0  0  0  0  0
   -3.3246    8.1562   -0.0360 C   0  0  0  0  0
   -1.9059    8.6437   -0.3152 C   0  0  0  0  0
   -1.0031    7.4323   -0.1689 C   0  0  0  0  0
   -3.2918    6.6384   -0.0757 C   0  0  0  0  0
   -1.4185    4.9369   -0.0211 C   0  0  0  0  0
   -2.0684    2.4589    0.1388 C   0  0  0  0  0
   -3.1303    1.5504    0.2132 C   0  0  0  0  0
   -2.8825    0.1764    0.2901 C   0  0  0  0  0
   -1.5679   -0.2976    0.2930 C   0  0  0  0  0
   -0.5015    0.6022    0.2189 C   0  0  0  0  0
   -0.7506    1.9757    0.1421 C   0  0  0  0  0
   -5.4014    9.5035   -0.6087 C   0  0  0  0  0
   -7.3446   10.7585   -1.2242 C   0  0  0  0  0
   -6.7567   10.6010    1.0303 C   0  0  0  0  0
   -5.6751    9.8332    0.7275 C   0  0  0  0  0
   -5.0431    9.5304    1.9142 C   0  0  0  0  0
   -5.8179   10.1619    2.8895 C   0  0  0  0  0
   -4.2753    8.6946   -1.0095 N   0  0  0  0  0
   -1.8877    6.2869   -0.0927 N   0  0  0  0  0
   -2.3641    3.8600    0.0612 N   0  0  0  0  0
   -6.2632    9.9878   -1.5552 N   0  0  0  0  0
   -7.5979   11.0707    0.0791 N   0  0  0  0  0
   -6.8713   10.8200    2.3466 N   0  0  0  0  0
   -0.1791    4.7055   -0.0316 O   0  0  0  0  0
  1 19  1  0  0  0
  2 19  1  0  0  0
  2  3  1  0  0  0
  3  4  1  0  0  0
  4 20  1  0  0  0
  5 20  1  0  0  0
  5  2  1  0  0  0
  6 21  1  0  0  0
  8  9  1  0  0  0
 10 11  1  0  0  0
 12  7  1  0  0  0
 14 22  1  0  0  0
 15 23  1  0  0  0
 16 17  1  0  0  0
 16 13  1  0  0  0
 18 24  1  0  0  0
 19 13  1  0  0  0
 20  6  1  0  0  0
 21  7  1  0  0  0
 24 15  1  0  0  0
  6 25  2  0  0  0
  7  8  2  0  0  0
  9 10  2  0  0  0
 11 12  2  0  0  0
 13 22  2  0  0  0
 14 23  2  0  0  0
 15 16  2  0  0  0
 17 18  2  0  0  0
M  END
> <rmsd>
0.47039488

$$$$
CHEMBL570339


 26 29  0  0  0  0  0  0  0  0999 V2000
   -2.8271    6.5322   -1.3766 C   0  0  0  0  0
   -2.0005    6.5781   -2.6608 C   0  0  0  0  0
   -0.0331    7.4562   -1.3912 C   0  0  0  0  0
   -0.8353    7.4165   -0.0905 C   0  0  0  0  0
   -1.9357    6.3444   -0.1434 C   0  0  0  0  0
   -1.4197    4.9341   -0.0423 C   0  0  0  0  0
   -2.0688    2.4588    0.1390 C   0  0  0  0  0
   -0.7522    1.9735    0.1035 C   0  0  0  0  0
   -0.5027    0.6002    0.1799 C   0  0  0  0  0
   -1.5677   -0.2975    0.2918 C   0  0  0  0  0
   -2.8812    0.1785    0.3266 C   0  0  0  0  0
   -3.1293    1.5524    0.2500 C   0  0  0  0  0
   -1.3038   -1.7576    0.3732 C   0  0  0  0  0
   -0.9817    8.7867   -3.2866 C   0  0  0  0  0
   -0.9786   11.1749   -3.3296 C   0  0  0  0  0
   -1.1972    9.9971   -5.3375 C   0  0  0  0  0
   -1.1209    8.8042   -4.6802 C   0  0  0  0  0
   -1.1504    7.8354   -5.6613 C   0  0  0  0  0
   -1.2573    8.5069   -6.8739 C   0  0  0  0  0
   -0.9892    6.3638   -5.5109 C   0  0  0  0  0
   -0.9404    7.5721   -2.5277 N   0  0  0  0  0
   -2.3647    3.8598    0.0597 N   0  0  0  0  0
   -0.9050    9.9916   -2.6461 N   0  0  0  0  0
   -1.1278   11.1827   -4.6860 N   0  0  0  0  0
   -1.2893    9.8472   -6.6701 N   0  0  0  0  0
   -0.1794    4.7044   -0.0325 O   0  0  0  0  0
  1  2  1  0  0  0
  2 21  1  0  0  0
  3 21  1  0  0  0
  3  4  1  0  0  0
  4  5  1  0  0  0
  5  6  1  0  0  0
  5  1  1  0  0  0
  6 22  1  0  0  0
  8  9  1  0  0  0
 10 11  1  0  0  0
 12  7  1  0  0  0
 13 10  1  0  0  0
 15 23  1  0  0  0
 16 24  1  0  0  0
 17 18  1  0  0  0
 17 14  1  0  0  0
 19 25  1  0  0  0
 20 18  1  0  0  0
 21 14  1  0  0  0
 22  7  1  0  0  0
 25 16  1  0  0  0
  6 26  2  0  0  0
  7  8  2  0  0  0
  9 10  2  0  0  0
 11 12  2  0  0  0
 14 23  2  0  0  0
 15 24  2  0  0  0
 16 17  2  0  0  0
 18 19  2  0  0  0
M  END
> <rmsd>
0.47011134

$$$$
CHEMBL568938


 26 29  0  0  0  0  0  0  0  0999 V2000
   -0.8382    7.4039   -0.2799 C   0  0  0  0  0
    0.0162    7.6119    0.9718 C   0  0  0  0  0
   -1.8858    6.8733    2.4169 C   0  0  0  0  0
   -2.7723    6.6886    1.1871 C   0  0  0  0  0
   -1.9339    6.3500   -0.0510 C   0  0  0  0  0
   -1.4192    4.9365   -0.0028 C   0  0  0  0  0
   -2.0689    2.4589    0.1369 C   0  0  0  0  0
   -3.1302    1.5476    0.1754 C   0  0  0  0  0
   -2.8816    0.1739    0.2531 C   0  0  0  0  0
   -1.5664   -0.2970    0.2934 C   0  0  0  0  0
   -0.5005    0.6057    0.2564 C   0  0  0  0  0
   -0.7507    1.9788    0.1789 C   0  0  0  0  0
    0.8984    0.1068    0.2997 C   0  0  0  0  0
   -0.8845    9.1428    2.7470 C   0  0  0  0  0
   -2.1580   11.0353    3.4554 C   0  0  0  0  0
    0.1628   11.0498    3.7389 C   0  0  0  0  0
    0.2666    9.8030    3.1954 C   0  0  0  0  0
    1.6006    9.4659    3.2874 C   0  0  0  0  0
    2.2401   10.5495    3.8790 C   0  0  0  0  0
    2.2525    8.1736    2.9418 C   0  0  0  0  0
   -0.8442    7.8522    2.1260 N   0  0  0  0  0
   -2.3650    3.8600    0.0605 N   0  0  0  0  0
   -2.0802    9.7861    2.9017 N   0  0  0  0  0
   -1.0299   11.6768    3.8772 N   0  0  0  0  0
    1.3466   11.5317    4.1551 N   0  0  0  0  0
   -0.1796    4.7045   -0.0322 O   0  0  0  0  0
  1  2  1  0  0  0
  2 21  1  0  0  0
  3 21  1  0  0  0
  3  4  1  0  0  0
  4  5  1  0  0  0
  5  6  1  0  0  0
  5  1  1  0  0  0
  6 22  1  0  0  0
  8  9  1  0  0  0
 10 11  1  0  0  0
 12  7  1  0  0  0
 13 11  1  0  0  0
 15 23  1  0  0  0
 16 24  1  0  0  0
 17 18  1  0  0  0
 17 14  1  0  0  0
 19 25  1  0  0  0
 20 18  1  0  0  0
 21 14  1  0  0  0
 22  7  1  0  0  0
 25 16  1  0  0  0
  6 26  2  0  0  0
  7  8  2  0  0  0
  9 10  2  0  0  0
 11 12  2  0  0  0
 14 23  2  0  0  0
 15 24  2  0  0  0
 16 17  2  0  0  0
 18 19  2  0  0  0
M  END
> <rmsd>
0.469631076

$$$$
CHEMBL3716162


 23 26  0  0  0  0  0  0  0  0999 V2000
    2.6496   -2.1048    0.1726 N   0  0  0  0  0
    0.5719   -3.2488    0.2873 N   0  0  0  0  0
    2.8252    0.3167    0.1892 N   0  0  0  0  0
   -1.3987   -1.8777    0.3409 N   0  0  0  0  0
   -2.5942    4.4738    0.0274 N   0  0  0  0  0
    1.9346   -3.2715    0.2137 C   0  0  0  0  0
   -0.0583   -2.0503    0.3158 C   0  0  0  0  0
    0.6403   -0.8667    0.2721 C   0  0  0  0  0
    2.0379   -0.8829    0.2090 C   0  0  0  0  0
    2.6173    1.3477    1.2006 C   0  0  0  0  0
    3.7107    1.2458    2.2639 C   0  0  0  0  0
    5.1065    1.2647    1.6302 C   0  0  0  0  0
    5.2395    0.2049    0.5303 C   0  0  0  0  0
    4.1129    0.3237   -0.4970 C   0  0  0  0  0
    5.4516    2.6484    1.1038 C   0  0  0  0  0
   -0.3173    0.1203    0.2518 C   0  0  0  0  0
   -1.5332   -0.5325    0.3029 C   0  0  0  0  0
   -2.7338    0.1722    0.2819 C   0  0  0  0  0
   -2.6716    1.5744    0.2028 C   0  0  0  0  0
   -1.4284    2.2478    0.1383 C   0  0  0  0  0
   -0.2294    1.5068    0.1572 C   0  0  0  0  0
   -1.3868    3.7177    0.0495 C   0  0  0  0  0
   -0.2821    4.3208   -0.0074 O   0  0  0  0  0
  4  7  1  0  0  0
  6  2  1  0  0  0
  7  8  1  0  0  0
  8 16  1  0  0  0
  9  3  1  0  0  0
  9  1  1  0  0  0
 10  3  1  0  0  0
 10 11  1  0  0  0
 11 12  1  0  0  0
 12 13  1  0  0  0
 12 15  1  0  0  0
 13 14  1  0  0  0
 14  3  1  0  0  0
 17  4  1  0  0  0
 17 18  1  0  0  0
 19 20  1  0  0  0
 20 22  1  0  0  0
 21 16  1  0  0  0
 22  5  1  0  0  0
  6  1  2  0  0  0
  7  2  2  0  0  0
  8  9  2  0  0  0
 16 17  2  0  0  0
 18 19  2  0  0  0
 20 21  2  0  0  0
 22 23  2  0  0  0
M  END
> <rmsd>
0.13512072

$$$$
CHEMBL3715037


 24 27  0  0  0  0  0  0  0  0999 V2000
    2.6508   -2.1005    0.1675 N   0  0  0  0  0
    0.5740   -3.2463    0.2802 N   0  0  0  0  0
    2.8249    0.3219    0.1922 N   0  0  0  0  0
   -1.3973   -1.8764    0.3376 N   0  0  0  0  0
   -2.5943    4.4750    0.0279 N   0  0  0  0  0
    1.9366   -3.2678    0.2052 C   0  0  0  0  0
   -0.0568   -2.0482    0.3134 C   0  0  0  0  0
    0.6413   -0.8641    0.2732 C   0  0  0  0  0
    2.0389   -0.8790    0.2095 C   0  0  0  0  0
    2.6316    1.3214    1.2438 C   0  0  0  0  0
    2.8546    2.7228    0.6868 C   0  0  0  0  0
    4.2306    2.8105    0.0412 C   0  0  0  0  0
    4.3385    1.8067   -1.1042 C   0  0  0  0  0
    4.0350    0.3775   -0.6382 C   0  0  0  0  0
    5.2372   -0.3201    0.0101 C   0  0  0  0  0
    5.6412    0.2898    1.3425 C   0  0  0  0  0
   -0.3169    0.1220    0.2535 C   0  0  0  0  0
   -1.5325   -0.5313    0.3022 C   0  0  0  0  0
   -2.7334    0.1728    0.2801 C   0  0  0  0  0
   -2.6717    1.5752    0.2016 C   0  0  0  0  0
   -1.4287    2.2489    0.1388 C   0  0  0  0  0
   -0.2296    1.5081    0.1590 C   0  0  0  0  0
   -1.3870    3.7189    0.0499 C   0  0  0  0  0
   -0.2822    4.3219   -0.0075 O   0  0  0  0  0
  4  7  1  0  0  0
  6  2  1  0  0  0
  7  8  1  0  0  0
  8 17  1  0  0  0
  9  3  1  0  0  0
  9  1  1  0  0  0
 10  3  1  0  0  0
 10 11  1  0  0  0
 11 12  1  0  0  0
 12 13  1  0  0  0
 13 14  1  0  0  0
 14 15  1  0  0  0
 14  3  1  0  0  0
 15 16  1  0  0  0
 18  4  1  0  0  0
 18 19  1  0  0  0
 20 21  1  0  0  0
 21 23  1  0  0  0
 22 17  1  0  0  0
 23  5  1  0  0  0
  6  1  2  0  0  0
  7  2  2  0  0  0
  8  9  2  0  0  0
 17 18  2  0  0  0
 19 20  2  0  0  0
 21 22  2  0  0  0
 23 24  2  0  0  0
M  END
> <rmsd>
0.135047778

$$$$
CHEMBL4290931


 27 31  0  0  0  0  0  0  0  0999 V2000
   -5.3222    9.3648   -1.1824 C   0  0  0  0  0
   -3.3874    8.1486   -0.2492 C   0  0  0  0  0
   -3.3094    6.6287   -0.1167 C   0  0  0  0  0
   -0.9960    7.4260   -0.2253 C   0  0  0  0  0
   -1.9392    8.5914   -0.3085 C   0  0  0  0  0
   -1.4977    9.9678   -0.7549 C   0  0  0  0  0
   -1.6266    9.6477    0.7263 C   0  0  0  0  0
   -1.4196    4.9368   -0.0255 C   0  0  0  0  0
   -2.0691    2.4591    0.1390 C   0  0  0  0  0
   -3.1306    1.5509    0.2205 C   0  0  0  0  0
   -2.8826    0.1769    0.2973 C   0  0  0  0  0
   -1.5680   -0.2973    0.2928 C   0  0  0  0  0
   -0.5019    0.6023    0.2114 C   0  0  0  0  0
   -0.7513    1.9756    0.1347 C   0  0  0  0  0
   -3.7635    8.1665   -2.7842 C   0  0  0  0  0
   -2.3282    6.9146   -4.2364 C   0  0  0  0  0
   -4.0027    8.2495   -5.1656 C   0  0  0  0  0
   -4.4139    8.6481   -3.9311 C   0  0  0  0  0
   -5.4661    9.5195   -4.1128 C   0  0  0  0  0
   -5.6248    9.5866   -5.4986 C   0  0  0  0  0
   -4.1440    8.5507   -1.4387 N   0  0  0  0  0
   -1.8894    6.2860   -0.1066 N   0  0  0  0  0
   -2.3649    3.8601    0.0609 N   0  0  0  0  0
   -2.7227    7.3011   -2.9847 N   0  0  0  0  0
   -2.9711    7.3905   -5.3407 N   0  0  0  0  0
   -4.7251    8.8065   -6.1461 N   0  0  0  0  0
   -0.1802    4.7058   -0.0320 O   0  0  0  0  0
  1 21  1  0  0  0
  2 21  1  0  0  0
  2  3  1  0  0  0
  3 22  1  0  0  0
  4 22  1  0  0  0
  4  5  1  0  0  0
  5  6  1  0  0  0
  5  2  1  0  0  0
  6  7  1  0  0  0
  7  5  1  0  0  0
  8 23  1  0  0  0
 10 11  1  0  0  0
 12 13  1  0  0  0
 14  9  1  0  0  0
 16 24  1  0  0  0
 17 25  1  0  0  0
 18 19  1  0  0  0
 18 15  1  0  0  0
 20 26  1  0  0  0
 21 15  1  0  0  0
 22  8  1  0  0  0
 23  9  1  0  0  0
 26 17  1  0  0  0
  8 27  2  0  0  0
  9 10  2  0  0  0
 11 12  2  0  0  0
 13 14  2  0  0  0
 15 24  2  0  0  0
 16 25  2  0  0  0
 17 18  2  0  0  0
 19 20  2  0  0  0
M  END
> <rmsd>
0.470367908

$$$$
CHEMBL3719102


 23 26  0  0  0  0  0  0  0  0999 V2000
    1.9212    4.0896    0.0260 N   0  0  0  0  0
   -0.2231    5.1096   -0.0553 N   0  0  0  0  0
    2.2263    1.6986    0.2996 N   0  0  0  0  0
   -2.1119    3.6292    0.0687 N   0  0  0  0  0
   -2.9000   -2.7882    0.3635 N   0  0  0  0  0
    1.1386    5.2083   -0.0823 C   0  0  0  0  0
   -0.7840    3.8838    0.0782 C   0  0  0  0  0
   -0.0166    2.7492    0.1860 C   0  0  0  0  0
    1.3773    2.8444    0.1715 C   0  0  0  0  0
    2.0591    0.7972    1.4441 C   0  0  0  0  0
    3.1001   -0.3197    1.4333 C   0  0  0  0  0
    3.2027   -0.8999    0.0277 C   0  0  0  0  0
    3.6512    0.1502   -0.9983 C   0  0  0  0  0
    3.4138    1.5978   -0.5483 C   0  0  0  0  0
    2.9449   -0.1022   -2.3145 C   0  0  0  0  0
   -0.9098    1.7061    0.2312 C   0  0  0  0  0
   -2.1636    2.2808    0.1663 C   0  0  0  0  0
   -3.3166    1.5003    0.1699 C   0  0  0  0  0
   -3.1649    0.1038    0.2377 C   0  0  0  0  0
   -1.8809   -0.4897    0.2920 C   0  0  0  0  0
   -0.7319    0.3263    0.2827 C   0  0  0  0  0
   -1.7442   -1.9551    0.3550 C   0  0  0  0  0
   -0.6026   -2.4862    0.4021 O   0  0  0  0  0
  4  7  1  0  0  0
  6  2  1  0  0  0
  7  8  1  0  0  0
  8 16  1  0  0  0
  9  3  1  0  0  0
  9  1  1  0  0  0
 10  3  1  0  0  0
 10 11  1  0  0  0
 11 12  1  0  0  0
 12 13  1  0  0  0
 13 14  1  0  0  0
 13 15  1  0  0  0
 14  3  1  0  0  0
 17  4  1  0  0  0
 17 18  1  0  0  0
 19 20  1  0  0  0
 20 22  1  0  0  0
 21 16  1  0  0  0
 22  5  1  0  0  0
  6  1  2  0  0  0
  7  2  2  0  0  0
  8  9  2  0  0  0
 16 17  2  0  0  0
 18 19  2  0  0  0
 20 21  2  0  0  0
 22 23  2  0  0  0
M  END
> <rmsd>
0.785080492

$$$$
CHEMBL3718794


 24 27  0  0  0  0  0  0  0  0999 V2000
    2.6592   -2.0783    0.4756 N   0  0  0  0  0
    0.5832   -3.2283    0.5747 N   0  0  0  0  0
    2.8200    0.3209    0.1611 N   0  0  0  0  0
   -1.3942   -1.8724    0.4280 N   0  0  0  0  0
   -2.5938    4.4744    0.0282 N   0  0  0  0  0
    1.9481   -3.2416    0.6022 C   0  0  0  0  0
   -0.0531   -2.0422    0.4228 C   0  0  0  0  0
    0.6417   -0.8628    0.2968 C   0  0  0  0  0
    2.0399   -0.8712    0.3117 C   0  0  0  0  0
    2.5736    1.2094   -0.9799 C   0  0  0  0  0
    3.7101    2.2136   -1.1953 C   0  0  0  0  0
    4.1583    2.8848    0.1098 C   0  0  0  0  0
    4.1831    1.9614    1.3375 C   0  0  0  0  0
    4.0161    0.4896    0.9809 C   0  0  0  0  0
    5.4729    2.1621    2.1041 C   0  0  0  0  0
    4.8876    1.5471   -1.8842 C   0  0  0  0  0
   -0.3171    0.1205    0.2352 C   0  0  0  0  0
   -1.5317   -0.5320    0.3089 C   0  0  0  0  0
   -2.7326    0.1724    0.2920 C   0  0  0  0  0
   -2.6712    1.5742    0.2014 C   0  0  0  0  0
   -1.4282    2.2482    0.1379 C   0  0  0  0  0
   -0.2289    1.5081    0.1613 C   0  0  0  0  0
   -1.3865    3.7182    0.0500 C   0  0  0  0  0
   -0.2816    4.3212   -0.0070 O   0  0  0  0  0
  4  7  1  0  0  0
  6  2  1  0  0  0
  7  8  1  0  0  0
  8 17  1  0  0  0
  9  3  1  0  0  0
  9  1  1  0  0  0
 10  3  1  0  0  0
 10 11  1  0  0  0
 11 12  1  0  0  0
 11 16  1  0  0  0
 12 13  1  0  0  0
 13 14  1  0  0  0
 13 15  1  0  0  0
 14  3  1  0  0  0
 18  4  1  0  0  0
 18 19  1  0  0  0
 20 21  1  0  0  0
 21 23  1  0  0  0
 22 17  1  0  0  0
 23  5  1  0  0  0
  6  1  2  0  0  0
  7  2  2  0  0  0
  8  9  2  0  0  0
 17 18  2  0  0  0
 19 20  2  0  0  0
 21 22  2  0  0  0
 23 24  2  0  0  0
M  END
> <rmsd>
0.135362804

$$$$
CHEMBL4285042


 29 33  0  0  0  0  0  0  0  0999 V2000
   -1.3405   -1.7705    0.3761 C   0  0  0  0  0
   -1.5693   -0.3005    0.2931 C   0  0  0  0  0
   -0.4965    0.6053    0.2280 C   0  0  0  0  0
   -0.7525    1.9776    0.1510 C   0  0  0  0  0
   -2.0695    2.4599    0.1380 C   0  0  0  0  0
   -3.1303    1.5517    0.2035 C   0  0  0  0  0
   -2.8823    0.1787    0.2806 C   0  0  0  0  0
   -1.4184    4.9375   -0.0169 C   0  0  0  0  0
   -0.9843    7.4368   -0.1296 C   0  0  0  0  0
   -1.8691    8.6823   -0.1360 C   0  0  0  0  0
   -3.2815    8.1353   -0.0888 C   0  0  0  0  0
   -3.2970    6.6344   -0.0444 C   0  0  0  0  0
   -4.1375    8.6774   -1.2101 C   0  0  0  0  0
   -4.4978    8.9733    0.2374 C   0  0  0  0  0
   -1.1445   10.9087    0.6456 C   0  0  0  0  0
   -1.6868    9.1389    2.3793 C   0  0  0  0  0
   -2.1016    7.3934    3.9659 C   0  0  0  0  0
   -1.6399    9.5473    4.7385 C   0  0  0  0  0
   -1.5145   10.0113    3.4654 C   0  0  0  0  0
   -1.2286   11.3570    3.5477 C   0  0  0  0  0
   -1.1975   11.6214    4.9185 C   0  0  0  0  0
   -2.3647    3.8610    0.0609 N   0  0  0  0  0
   -1.8862    6.2884   -0.0775 N   0  0  0  0  0
   -1.5728    9.5636    0.9974 N   0  0  0  0  0
   -1.9812    7.8363    2.6771 N   0  0  0  0  0
   -1.9302    8.2532    5.0102 N   0  0  0  0  0
   -1.4506   10.5093    5.6508 N   0  0  0  0  0
   -0.1793    4.7049   -0.0317 O   0  0  0  0  0
    1.1733    0.0591    0.2406 Cl  0  0  0  0  0
  1  2  1  0  0  0
  3  4  1  0  0  0
  3 29  1  0  0  0
  5  6  1  0  0  0
  5 22  1  0  0  0
  7  2  1  0  0  0
  8 23  1  0  0  0
  9 23  1  0  0  0
  9 10  1  0  0  0
 10 11  1  0  0  0
 10 24  1  0  0  0
 11 12  1  0  0  0
 11 13  1  0  0  0
 12 23  1  0  0  0
 13 14  1  0  0  0
 14 11  1  0  0  0
 15 24  1  0  0  0
 17 25  1  0  0  0
 18 26  1  0  0  0
 19 20  1  0  0  0
 19 16  1  0  0  0
 21 27  1  0  0  0
 22  8  1  0  0  0
 24 16  1  0  0  0
 27 18  1  0  0  0
  2  3  2  0  0  0
  4  5  2  0  0  0
  6  7  2  0  0  0
  8 28  2  0  0  0
 16 25  2  0  0  0
 17 26  2  0  0  0
 18 19  2  0  0  0
 20 21  2  0  0  0
M  END
> <rmsd>
0.469853401

$$$$
CHEMBL4287328


 33 38  0  0  0  0  0  0  0  0999 V2000
   -1.7195    8.9050    2.3830 C   0  0  0  0  0
   -1.8680    8.6863   -0.1292 C   0  0  0  0  0
   -0.9845    7.4382   -0.1284 C   0  0  0  0  0
   -3.2945    6.6349   -0.0367 C   0  0  0  0  0
   -3.2787    8.1328   -0.1282 C   0  0  0  0  0
   -4.0881    8.6382   -1.3002 C   0  0  0  0  0
   -4.5087    8.9765    0.1220 C   0  0  0  0  0
   -1.4174    4.9382   -0.0091 C   0  0  0  0  0
   -2.0922    2.4547    0.1151 C   0  0  0  0  0
   -0.7679    1.9896    0.1536 C   0  0  0  0  0
   -0.4878    0.6272    0.2515 C   0  0  0  0  0
   -1.5312   -0.2928    0.3185 C   0  0  0  0  0
   -2.8531    0.1507    0.2811 C   0  0  0  0  0
   -3.1585    1.5188    0.1725 C   0  0  0  0  0
   -4.5920    1.9198    0.1243 C   0  0  0  0  0
   -5.5712    1.1001    0.7121 C   0  0  0  0  0
   -6.9232    1.4508    0.6577 C   0  0  0  0  0
   -7.3146    2.6236    0.0084 C   0  0  0  0  0
   -6.3549    3.4432   -0.5890 C   0  0  0  0  0
   -5.0036    3.0907   -0.5341 C   0  0  0  0  0
   -1.3599   10.9190    0.8834 C   0  0  0  0  0
   -1.2086   12.8084   -0.5784 C   0  0  0  0  0
   -0.7883   13.0939    1.7009 C   0  0  0  0  0
   -1.0169   11.7746    1.9409 C   0  0  0  0  0
   -0.8323   11.5655    3.2905 C   0  0  0  0  0
   -0.4947   12.8246    3.7918 C   0  0  0  0  0
   -1.6155    9.5093    1.0568 N   0  0  0  0  0
   -1.8840    6.2901   -0.0541 N   0  0  0  0  0
   -2.3667    3.8642    0.0598 N   0  0  0  0  0
   -1.4431   11.4773   -0.3633 N   0  0  0  0  0
   -0.8780   13.6285    0.4602 N   0  0  0  0  0
   -0.4670   13.7642    2.8150 N   0  0  0  0  0
   -0.1789    4.7036   -0.0326 O   0  0  0  0  0
  1 27  1  0  0  0
  2 27  1  0  0  0
  2  3  1  0  0  0
  3 28  1  0  0  0
  4 28  1  0  0  0
  4  5  1  0  0  0
  5  6  1  0  0  0
  5  2  1  0  0  0
  6  7  1  0  0  0
  7  5  1  0  0  0
  8 29  1  0  0  0
 10 11  1  0  0  0
 12 13  1  0  0  0
 14 15  1  0  0  0
 14  9  1  0  0  0
 16 17  1  0  0  0
 18 19  1  0  0  0
 20 15  1  0  0  0
 22 30  1  0  0  0
 23 31  1  0  0  0
 24 25  1  0  0  0
 24 21  1  0  0  0
 26 32  1  0  0  0
 27 21  1  0  0  0
 28  8  1  0  0  0
 29  9  1  0  0  0
 32 23  1  0  0  0
  8 33  2  0  0  0
  9 10  2  0  0  0
 11 12  2  0  0  0
 13 14  2  0  0  0
 15 16  2  0  0  0
 17 18  2  0  0  0
 19 20  2  0  0  0
 21 30  2  0  0  0
 22 31  2  0  0  0
 23 24  2  0  0  0
 25 26  2  0  0  0
M  END
> <rmsd>
0.467344642

$$$$
CHEMBL3356066


 28 31  0  0  0  0  0  0  0  0999 V2000
   -1.3443    5.9769    1.4617 N   0  0  0  0  0
   -1.0619    8.7169    1.2483 N   0  0  0  0  0
   -1.2020   12.3644    3.3467 N   0  0  0  0  0
   -2.0862   10.2197    2.8488 N   0  0  0  0  0
    0.7307   13.0216    2.0902 N   0  0  0  0  0
   -2.5348    4.3286    0.0357 N   0  0  0  0  0
   -0.1501    6.6090    2.0403 C   0  0  0  0  0
    0.1514    7.8982    1.2875 C   0  0  0  0  0
   -2.3116    8.1029    0.7937 C   0  0  0  0  0
   -2.5511    6.7927    1.5464 C   0  0  0  0  0
   -1.1028    9.9754    1.9316 C   0  0  0  0  0
   -0.1534   10.9829    1.7193 C   0  0  0  0  0
   -0.2251   12.1417    2.4352 C   0  0  0  0  0
   -2.1390   11.3935    3.5505 C   0  0  0  0  0
    1.4328   12.4067    1.1061 C   0  0  0  0  0
    0.9071   11.1449    0.8527 C   0  0  0  0  0
    1.3641   10.2298   -0.2283 C   0  0  0  0  0
    1.0650    5.6994    2.1319 C   0  0  0  0  0
   -1.3105    4.9272    0.4745 C   0  0  0  0  0
   -2.5809    3.2442   -0.9367 C   0  0  0  0  0
   -3.9985    3.0829   -1.4540 C   0  0  0  0  0
   -2.0920    1.9651   -0.3294 C   0  0  0  0  0
   -2.7044    1.4218    0.8107 C   0  0  0  0  0
   -2.2246    0.2320    1.3658 C   0  0  0  0  0
   -1.1315   -0.4186    0.7860 C   0  0  0  0  0
   -0.5178    0.1204   -0.3485 C   0  0  0  0  0
   -0.9970    1.3104   -0.9044 C   0  0  0  0  0
   -0.2162    4.5442   -0.0219 O   0  0  0  0  0
  1 19  1  0  0  0
  2 11  1  0  0  0
  5 15  1  0  0  0
  7  1  1  0  0  0
  7  8  1  0  0  0
  7 18  1  0  0  0
  8  2  1  0  0  0
  9  2  1  0  0  0
  9 10  1  0  0  0
 10  1  1  0  0  0
 11  4  1  0  0  0
 12 13  1  0  0  0
 13  5  1  0  0  0
 14  3  1  0  0  0
 16 12  1  0  0  0
 17 16  1  0  0  0
 19  6  1  0  0  0
 20  6  1  0  0  0
 20 21  1  0  0  0
 20 22  1  0  0  0
 23 24  1  0  0  0
 25 26  1  0  0  0
 27 22  1  0  0  0
 11 12  2  0  0  0
 13  3  2  0  0  0
 14  4  2  0  0  0
 15 16  2  0  0  0
 19 28  2  0  0  0
 22 23  2  0  0  0
 24 25  2  0  0  0
 26 27  2  0  0  0
M  END
> <rmsd>
0.256138265

$$$$
CHEMBL570598


 25 28  0  0  0  0  0  0  0  0999 V2000
    1.1075    5.5001   -3.1766 C   0  0  0  0  0
    1.2740    6.5484   -4.2198 C   0  0  0  0  0
    2.1476    6.4735   -5.2990 C   0  0  0  0  0
    1.0128    8.2741   -5.5368 C   0  0  0  0  0
   -0.5455   10.0096   -5.3691 C   0  0  0  0  0
   -0.4854    8.3274   -3.6755 C   0  0  0  0  0
   -2.4292    7.7564   -2.2238 C   0  0  0  0  0
   -2.7790    6.5016   -1.4280 C   0  0  0  0  0
   -1.9334    6.3414   -0.1519 C   0  0  0  0  0
   -1.4199    4.9342   -0.0427 C   0  0  0  0  0
   -2.0690    2.4591    0.1394 C   0  0  0  0  0
   -0.7526    1.9737    0.0996 C   0  0  0  0  0
   -0.5028    0.6004    0.1760 C   0  0  0  0  0
   -1.5674   -0.2973    0.2919 C   0  0  0  0  0
   -2.8807    0.1788    0.3309 C   0  0  0  0  0
   -3.1290    1.5527    0.2543 C   0  0  0  0  0
   -0.8280    7.4018   -0.0015 C   0  0  0  0  0
   -0.0682    7.6206   -1.3115 C   0  0  0  0  0
    0.5561    7.7140   -4.3807 C   0  0  0  0  0
    1.9855    7.5467   -6.1127 N   0  0  0  0  0
    0.4795    9.4116   -6.0437 N   0  0  0  0  0
   -1.0188    9.4692   -4.2038 N   0  0  0  0  0
   -0.9857    7.8103   -2.4384 N   0  0  0  0  0
   -2.3651    3.8601    0.0597 N   0  0  0  0  0
   -0.1795    4.7042   -0.0323 O   0  0  0  0  0
  1  2  1  0  0  0
  3 20  1  0  0  0
  5 21  1  0  0  0
  6 22  1  0  0  0
  6 23  1  0  0  0
  7 23  1  0  0  0
  7  8  1  0  0  0
  8  9  1  0  0  0
  9 10  1  0  0  0
  9 17  1  0  0  0
 10 24  1  0  0  0
 12 13  1  0  0  0
 14 15  1  0  0  0
 16 11  1  0  0  0
 17 18  1  0  0  0
 18 23  1  0  0  0
 19  2  1  0  0  0
 19  4  1  0  0  0
 20  4  1  0  0  0
 24 11  1  0  0  0
  2  3  2  0  0  0
  4 21  2  0  0  0
  5 22  2  0  0  0
  6 19  2  0  0  0
 10 25  2  0  0  0
 11 12  2  0  0  0
 13 14  2  0  0  0
 15 16  2  0  0  0
M  END
> <rmsd>
0.470030427

$$$$
CHEMBL3356064


 26 29  0  0  0  0  0  0  0  0999 V2000
   -1.8805    6.3050   -0.1358 N   0  0  0  0  0
   -2.7802    8.9293    0.1029 N   0  0  0  0  0
   -4.0379   12.9459    0.2319 N   0  0  0  0  0
   -4.4620   10.6280    0.5103 N   0  0  0  0  0
   -1.8553   13.5248   -0.5734 N   0  0  0  0  0
   -2.3632    3.8616    0.0613 N   0  0  0  0  0
   -3.0340    6.7389   -0.9519 C   0  0  0  0  0
   -3.7468    7.9042   -0.2738 C   0  0  0  0  0
   -1.6462    8.5115    0.9199 C   0  0  0  0  0
   -0.9270    7.3487    0.2447 C   0  0  0  0  0
   -3.1936   10.3009    0.1190 C   0  0  0  0  0
   -2.3380   11.3503   -0.2374 C   0  0  0  0  0
   -2.7798   12.6387   -0.1651 C   0  0  0  0  0
   -4.8828   11.9290    0.5700 C   0  0  0  0  0
   -0.7852   12.7728   -0.9321 C   0  0  0  0  0
   -1.0556   11.4230   -0.7377 C   0  0  0  0  0
   -0.1456   10.3059   -1.1075 C   0  0  0  0  0
   -4.0555    5.6478   -1.2267 C   0  0  0  0  0
   -1.4223    4.9394   -0.0554 C   0  0  0  0  0
   -2.0668    2.4606    0.1402 C   0  0  0  0  0
   -0.7518    1.9734    0.0807 C   0  0  0  0  0
   -0.5026    0.6000    0.1570 C   0  0  0  0  0
   -1.5663   -0.2960    0.2924 C   0  0  0  0  0
   -2.8781    0.1819    0.3509 C   0  0  0  0  0
   -3.1260    1.5558    0.2745 C   0  0  0  0  0
   -0.1836    4.7011   -0.0311 O   0  0  0  0  0
  1 19  1  0  0  0
  2 11  1  0  0  0
  5 15  1  0  0  0
  6 20  1  0  0  0
  7  1  1  0  0  0
  7  8  1  0  0  0
  7 18  1  0  0  0
  8  2  1  0  0  0
  9  2  1  0  0  0
  9 10  1  0  0  0
 10  1  1  0  0  0
 11  4  1  0  0  0
 12 13  1  0  0  0
 13  5  1  0  0  0
 14  3  1  0  0  0
 16 12  1  0  0  0
 17 16  1  0  0  0
 19  6  1  0  0  0
 21 22  1  0  0  0
 23 24  1  0  0  0
 25 20  1  0  0  0
 11 12  2  0  0  0
 13  3  2  0  0  0
 14  4  2  0  0  0
 15 16  2  0  0  0
 19 26  2  0  0  0
 20 21  2  0  0  0
 22 23  2  0  0  0
 24 25  2  0  0  0
M  END
> <rmsd>
0.46801421

$$$$
CHEMBL3717493


 23 26  0  0  0  0  0  0  0  0999 V2000
    4.4985    2.9610    0.1778 C   0  0  0  0  0
    3.6396    3.6326    1.2456 C   0  0  0  0  0
    2.3096    4.0644    0.6381 C   0  0  0  0  0
    2.4230    2.1637   -0.9815 C   0  0  0  0  0
    3.7718    1.7479   -0.3972 C   0  0  0  0  0
    0.2316    2.8063    0.0590 C   0  0  0  0  0
   -1.9093    3.8722    0.0402 C   0  0  0  0  0
   -1.8042    1.5366    0.1511 C   0  0  0  0  0
   -0.4300    1.5763    0.1365 C   0  0  0  0  0
   -0.0273    0.2677    0.2652 C   0  0  0  0  0
   -1.1867   -0.4795    0.3305 C   0  0  0  0  0
   -1.1479   -1.8630    0.4822 C   0  0  0  0  0
    0.1125   -2.4793    0.5718 C   0  0  0  0  0
    1.3036   -1.7167    0.5178 C   0  0  0  0  0
    1.2319   -0.3170    0.3678 C   0  0  0  0  0
    2.6139   -2.3820    0.6207 C   0  0  0  0  0
    1.6604    2.9152    0.0132 N   0  0  0  0  0
   -0.5416    3.9328    0.0218 N   0  0  0  0  0
   -2.5480    2.6675    0.1041 N   0  0  0  0  0
   -2.3007    0.2844    0.2641 N   0  0  0  0  0
    2.6951   -3.7962    0.7737 N   0  0  0  0  0
   -2.6698    5.0731   -0.0053 N   0  0  0  0  0
    3.6762   -1.7063    0.5743 O   0  0  0  0  0
  1  2  1  0  0  0
  2  3  1  0  0  0
  3 17  1  0  0  0
  4 17  1  0  0  0
  4  5  1  0  0  0
  5  1  1  0  0  0
  7 18  1  0  0  0
  7 22  1  0  0  0
  8 19  1  0  0  0
  9 10  1  0  0  0
  9  6  1  0  0  0
 11 20  1  0  0  0
 11 12  1  0  0  0
 13 14  1  0  0  0
 14 16  1  0  0  0
 15 10  1  0  0  0
 16 21  1  0  0  0
 17  6  1  0  0  0
 20  8  1  0  0  0
  6 18  2  0  0  0
  7 19  2  0  0  0
  8  9  2  0  0  0
 10 11  2  0  0  0
 12 13  2  0  0  0
 14 15  2  0  0  0
 16 23  2  0  0  0
M  END
> <rmsd>
0.547365189

$$$$
CHEMBL3716812


 23 26  0  0  0  0  0  0  0  0999 V2000
    2.6552   -2.0875    0.4654 N   0  0  0  0  0
    0.5779   -3.2316    0.5666 N   0  0  0  0  0
    2.8255    0.3141    0.1548 N   0  0  0  0  0
   -1.3966   -1.8722    0.4260 N   0  0  0  0  0
   -2.5935    4.4743    0.0286 N   0  0  0  0  0
    1.9426   -3.2497    0.5901 C   0  0  0  0  0
   -0.0557   -2.0436    0.4201 C   0  0  0  0  0
    0.6413   -0.8650    0.2962 C   0  0  0  0  0
    2.0401   -0.8770    0.3075 C   0  0  0  0  0
    2.5775    1.2175   -0.9654 C   0  0  0  0  0
    3.6492    1.0090   -2.0319 C   0  0  0  0  0
    5.0371    1.1696   -1.4129 C   0  0  0  0  0
    5.2258    0.1864   -0.2581 C   0  0  0  0  0
    4.1369    0.3993    0.7912 C   0  0  0  0  0
   -0.3170    0.1196    0.2358 C   0  0  0  0  0
   -1.5325   -0.5317    0.3091 C   0  0  0  0  0
   -2.7330    0.1732    0.2922 C   0  0  0  0  0
   -2.6710    1.5747    0.2019 C   0  0  0  0  0
   -1.4277    2.2482    0.1383 C   0  0  0  0  0
   -0.2285    1.5074    0.1616 C   0  0  0  0  0
   -1.3861    3.7181    0.0503 C   0  0  0  0  0
    2.6604   -4.5404    0.7544 C   0  0  0  0  0
   -0.2814    4.3212   -0.0071 O   0  0  0  0  0
  4  7  1  0  0  0
  6  2  1  0  0  0
  7  8  1  0  0  0
  8 15  1  0  0  0
  9  3  1  0  0  0
  9  1  1  0  0  0
 10  3  1  0  0  0
 10 11  1  0  0  0
 11 12  1  0  0  0
 12 13  1  0  0  0
 13 14  1  0  0  0
 14  3  1  0  0  0
 16  4  1  0  0  0
 16 17  1  0  0  0
 18 19  1  0  0  0
 19 21  1  0  0  0
 20 15  1  0  0  0
 21  5  1  0  0  0
 22  6  1  0  0  0
  6  1  2  0  0  0
  7  2  2  0  0  0
  8  9  2  0  0  0
 15 16  2  0  0  0
 17 18  2  0  0  0
 19 20  2  0  0  0
 21 23  2  0  0  0
M  END
> <rmsd>
0.13511993

$$$$
CHEMBL3715766


 24 27  0  0  0  0  0  0  0  0999 V2000
    1.7749    6.5533   -0.1297 C   0  0  0  0  0
    1.1369    5.2119   -0.0938 C   0  0  0  0  0
   -0.7843    3.8771   -0.0186 C   0  0  0  0  0
   -0.0171    2.7363   -0.0185 C   0  0  0  0  0
   -0.9105    1.6971    0.0935 C   0  0  0  0  0
   -2.1625    2.2785    0.1352 C   0  0  0  0  0
   -3.3141    1.5067    0.2653 C   0  0  0  0  0
   -3.1636    0.1118    0.3577 C   0  0  0  0  0
   -1.8822   -0.4869    0.3278 C   0  0  0  0  0
   -0.7341    0.3204    0.1993 C   0  0  0  0  0
   -1.7524   -1.9491    0.4334 C   0  0  0  0  0
   -2.8261   -4.1529    0.6662 C   0  0  0  0  0
    1.3773    2.8329   -0.0696 C   0  0  0  0  0
    2.0166    0.6528   -1.1172 C   0  0  0  0  0
    2.3793   -0.7392   -0.5856 C   0  0  0  0  0
    3.5585   -0.7424    0.3967 C   0  0  0  0  0
    4.3864    0.5339    0.3104 C   0  0  0  0  0
    3.5013    1.7354    0.6329 C   0  0  0  0  0
   -0.2239    5.1096   -0.0553 N   0  0  0  0  0
   -2.1101    3.6283    0.0696 N   0  0  0  0  0
    1.9184    4.0877   -0.0972 N   0  0  0  0  0
    2.2319    1.6825   -0.0992 N   0  0  0  0  0
   -0.6097   -2.4853    0.4081 O   0  0  0  0  0
   -2.8976   -2.7389    0.5612 O   0  0  0  0  0
  1  2  1  0  0  0
  2 21  1  0  0  0
  3 19  1  0  0  0
  4  5  1  0  0  0
  4 13  1  0  0  0
  6 20  1  0  0  0
  6  7  1  0  0  0
  8  9  1  0  0  0
  9 11  1  0  0  0
 10  5  1  0  0  0
 11 24  1  0  0  0
 12 24  1  0  0  0
 13 22  1  0  0  0
 14 22  1  0  0  0
 14 15  1  0  0  0
 15 16  1  0  0  0
 16 17  1  0  0  0
 17 18  1  0  0  0
 18 22  1  0  0  0
 20  3  1  0  0  0
  2 19  2  0  0  0
  3  4  2  0  0  0
  5  6  2  0  0  0
  7  8  2  0  0  0
  9 10  2  0  0  0
 11 23  2  0  0  0
 13 21  2  0  0  0
M  END
> <rmsd>
0.785481334

$$$$
CHEMBL3715062


 23 25  0  0  0  0  0  0  0  0999 V2000
    2.6549   -2.0886    0.4775 N   0  0  0  0  0
    0.5760   -3.2308    0.5800 N   0  0  0  0  0
    2.8349    0.3086    0.1492 N   0  0  0  0  0
   -1.3970   -1.8712    0.4301 N   0  0  0  0  0
   -2.5944    4.4744    0.0280 N   0  0  0  0  0
    1.9402   -3.2488    0.6077 C   0  0  0  0  0
   -0.0564   -2.0431    0.4249 C   0  0  0  0  0
    0.6417   -0.8651    0.2965 C   0  0  0  0  0
    2.0412   -0.8791    0.3104 C   0  0  0  0  0
    2.5732    1.2660   -0.9203 C   0  0  0  0  0
    2.7115    0.6128   -2.2882 C   0  0  0  0  0
    4.1688    0.3222   -2.5902 C   0  0  0  0  0
    4.0530    0.4790    0.9276 C   0  0  0  0  0
    3.7089    0.7910    2.3718 C   0  0  0  0  0
    4.9848    0.9571    3.1691 C   0  0  0  0  0
   -0.3171    0.1198    0.2340 C   0  0  0  0  0
   -1.5327   -0.5313    0.3090 C   0  0  0  0  0
   -2.7334    0.1734    0.2924 C   0  0  0  0  0
   -2.6717    1.5749    0.2015 C   0  0  0  0  0
   -1.4287    2.2483    0.1376 C   0  0  0  0  0
   -0.2297    1.5076    0.1608 C   0  0  0  0  0
   -1.3871    3.7182    0.0496 C   0  0  0  0  0
   -0.2822    4.3213   -0.0078 O   0  0  0  0  0
  4  7  1  0  0  0
  6  2  1  0  0  0
  7  8  1  0  0  0
  8 16  1  0  0  0
  9  3  1  0  0  0
  9  1  1  0  0  0
 10  3  1  0  0  0
 10 11  1  0  0  0
 11 12  1  0  0  0
 13  3  1  0  0  0
 13 14  1  0  0  0
 14 15  1  0  0  0
 17  4  1  0  0  0
 17 18  1  0  0  0
 19 20  1  0  0  0
 20 22  1  0  0  0
 21 16  1  0  0  0
 22  5  1  0  0  0
  6  1  2  0  0  0
  7  2  2  0  0  0
  8  9  2  0  0  0
 16 17  2  0  0  0
 18 19  2  0  0  0
 20 21  2  0  0  0
 22 23  2  0  0  0
M  END
> <rmsd>
0.134971693

$$$$
CHEMBL4545883


 28 31  0  0  0  0  0  0  0  0999 V2000
   -2.1027    6.3669   -1.3770 C   0  0  0  0  0
   -2.7184    5.9083   -0.0634 C   0  0  0  0  0
   -4.1810    6.3128   -0.0498 C   0  0  0  0  0
   -1.4359    3.6817    0.0520 C   0  0  0  0  0
   -1.4872    2.2850    0.1369 C   0  0  0  0  0
   -2.6977    1.5862    0.2010 C   0  0  0  0  0
   -2.6760    0.1916    0.2843 C   0  0  0  0  0
   -0.2992    0.1805    0.2413 C   0  0  0  0  0
   -0.2742    1.5735    0.1574 C   0  0  0  0  0
    0.9413    3.5976    0.0149 C   0  0  0  0  0
    2.2338    4.3053   -0.0471 C   0  0  0  0  0
    2.2743    5.7032   -0.1258 C   0  0  0  0  0
    3.5072    6.3563   -0.1823 C   0  0  0  0  0
    4.6513    4.2796   -0.0848 C   0  0  0  0  0
    3.4382    3.5900   -0.0266 C   0  0  0  0  0
   -1.9930    6.5388    1.1313 C   0  0  0  0  0
   -2.9086    8.4324    2.1523 C   0  0  0  0  0
   -3.0926    9.9525    2.1176 C   0  0  0  0  0
   -1.8362   10.6742    1.6242 C   0  0  0  0  0
   -0.5823    9.8731    1.9600 C   0  0  0  0  0
   -0.6410    8.4656    1.3387 C   0  0  0  0  0
    0.1551    8.4726    0.0452 C   0  0  0  0  0
   -2.6476    4.4522    0.0311 N   0  0  0  0  0
   -1.4897   -0.4756    0.3024 N   0  0  0  0  0
    0.9066    2.2390    0.0966 N   0  0  0  0  0
   -0.2250    4.3006   -0.0070 N   0  0  0  0  0
    4.6611    5.6373   -0.1608 N   0  0  0  0  0
   -2.0157    7.9973    1.0774 N   0  0  0  0  0
  1  2  1  0  0  0
  2  3  1  0  0  0
  2 23  1  0  0  0
  2 16  1  0  0  0
  4  5  1  0  0  0
  6  7  1  0  0  0
  8 24  1  0  0  0
  9 25  1  0  0  0
  9  5  1  0  0  0
 10 26  1  0  0  0
 10 11  1  0  0  0
 12 13  1  0  0  0
 14 27  1  0  0  0
 15 11  1  0  0  0
 16 28  1  0  0  0
 17 28  1  0  0  0
 17 18  1  0  0  0
 18 19  1  0  0  0
 19 20  1  0  0  0
 20 21  1  0  0  0
 21 22  1  0  0  0
 21 28  1  0  0  0
 23  4  1  0  0  0
  4 26  2  0  0  0
  5  6  2  0  0  0
  7 24  2  0  0  0
  8  9  2  0  0  0
 10 25  2  0  0  0
 11 12  2  0  0  0
 13 27  2  0  0  0
 14 15  2  0  0  0
M  END
> <rmsd>
0.130594775

$$$$
CHEMBL4448573


 30 34  0  0  0  0  0  0  0  0999 V2000
   -6.5503   10.7167   -0.1411 C   0  0  0  0  0
   -5.7496    9.5809    0.4952 C   0  0  0  0  0
   -5.6030    8.3657   -0.4398 C   0  0  0  0  0
   -6.0512    8.6418   -1.8801 C   0  0  0  0  0
   -5.9083   11.1326   -1.4669 C   0  0  0  0  0
   -4.8744   10.1598   -3.5335 C   0  0  0  0  0
   -4.0945   11.6406   -5.2441 C   0  0  0  0  0
   -3.5037    9.3823   -5.3305 C   0  0  0  0  0
   -4.1932    9.1242   -4.1869 C   0  0  0  0  0
   -4.0224    7.7875   -3.8940 C   0  0  0  0  0
   -3.2120    7.3124   -4.9260 C   0  0  0  0  0
   -4.2108    7.8153   -0.4074 C   0  0  0  0  0
   -4.0273    6.4499   -0.1652 C   0  0  0  0  0
   -2.7467    5.8886   -0.1886 C   0  0  0  0  0
   -1.6424    6.7091   -0.4617 C   0  0  0  0  0
   -1.8170    8.0744   -0.6986 C   0  0  0  0  0
   -3.0982    8.6284   -0.6760 C   0  0  0  0  0
   -1.3871    3.7256    0.0546 C   0  0  0  0  0
   -1.4353    2.2563    0.1513 C   0  0  0  0  0
   -2.6577    1.5782    0.0386 C   0  0  0  0  0
   -2.7032    0.1858    0.1104 C   0  0  0  0  0
   -1.5242   -0.5409    0.2953 C   0  0  0  0  0
   -0.3014    0.1263    0.4081 C   0  0  0  0  0
   -0.2568    1.5184    0.3352 C   0  0  0  0  0
   -5.6074    9.9685   -2.3080 N   0  0  0  0  0
   -4.7934   11.4080   -4.0899 N   0  0  0  0  0
   -3.4434   10.6201   -5.8758 N   0  0  0  0  0
   -2.8918    8.2921   -5.8087 N   0  0  0  0  0
   -2.6083    4.4795    0.0288 N   0  0  0  0  0
   -0.2722    4.3090   -0.0066 O   0  0  0  0  0
  1  2  1  0  0  0
  2  3  1  0  0  0
  3  4  1  0  0  0
  3 12  1  0  0  0
  4 25  1  0  0  0
  5 25  1  0  0  0
  5  1  1  0  0  0
  7 26  1  0  0  0
  8 27  1  0  0  0
  9 10  1  0  0  0
  9  6  1  0  0  0
 11 28  1  0  0  0
 13 14  1  0  0  0
 14 29  1  0  0  0
 15 16  1  0  0  0
 17 12  1  0  0  0
 18 19  1  0  0  0
 20 21  1  0  0  0
 22 23  1  0  0  0
 24 19  1  0  0  0
 25  6  1  0  0  0
 28  8  1  0  0  0
 29 18  1  0  0  0
  6 26  2  0  0  0
  7 27  2  0  0  0
  8  9  2  0  0  0
 10 11  2  0  0  0
 12 13  2  0  0  0
 14 15  2  0  0  0
 16 17  2  0  0  0
 18 30  2  0  0  0
 19 20  2  0  0  0
 21 22  2  0  0  0
 23 24  2  0  0  0
M  END
> <rmsd>
0.134888142

$$$$
CHEMBL571715


 26 29  0  0  0  0  0  0  0  0999 V2000
   -3.3296    6.5654   -0.1215 C   0  0  0  0  0
   -3.6084    8.0579   -0.2963 C   0  0  0  0  0
   -1.3263    8.2881   -1.3911 C   0  0  0  0  0
   -0.9312    7.3917   -0.2199 C   0  0  0  0  0
   -1.4196    4.9385   -0.0246 C   0  0  0  0  0
   -2.0684    2.4594    0.1382 C   0  0  0  0  0
   -3.1295    1.5504    0.2172 C   0  0  0  0  0
   -2.8810    0.1766    0.2942 C   0  0  0  0  0
   -1.5662   -0.2969    0.2926 C   0  0  0  0  0
   -0.5004    0.6035    0.2140 C   0  0  0  0  0
   -0.7504    1.9766    0.1370 C   0  0  0  0  0
    0.8982    0.1018    0.2121 C   0  0  0  0  0
   -3.3576    9.2210   -2.4994 C   0  0  0  0  0
   -3.6347    9.3033   -4.8703 C   0  0  0  0  0
   -4.8400   10.7902   -3.5273 C   0  0  0  0  0
   -4.2734   10.2757   -2.3985 C   0  0  0  0  0
   -4.7584   11.0375   -1.3567 C   0  0  0  0  0
   -5.6139   11.9767   -1.9214 C   0  0  0  0  0
   -4.3862   10.9755    0.0829 C   0  0  0  0  0
   -2.7575    8.6057   -1.3541 N   0  0  0  0  0
   -1.8885    6.2917   -0.1004 N   0  0  0  0  0
   -2.3646    3.8604    0.0601 N   0  0  0  0  0
   -3.0558    8.7663   -3.7524 N   0  0  0  0  0
   -4.5358   10.3223   -4.7617 N   0  0  0  0  0
   -5.6651   11.8191   -3.2676 N   0  0  0  0  0
   -0.1803    4.7040   -0.0317 O   0  0  0  0  0
  1  2  1  0  0  0
  1 21  1  0  0  0
  2 20  1  0  0  0
  3 20  1  0  0  0
  3  4  1  0  0  0
  4 21  1  0  0  0
  5 22  1  0  0  0
  7  8  1  0  0  0
  9 10  1  0  0  0
 11  6  1  0  0  0
 12 10  1  0  0  0
 14 23  1  0  0  0
 15 24  1  0  0  0
 16 17  1  0  0  0
 16 13  1  0  0  0
 18 25  1  0  0  0
 19 17  1  0  0  0
 20 13  1  0  0  0
 21  5  1  0  0  0
 22  6  1  0  0  0
 25 15  1  0  0  0
  5 26  2  0  0  0
  6  7  2  0  0  0
  8  9  2  0  0  0
 10 11  2  0  0  0
 13 23  2  0  0  0
 14 24  2  0  0  0
 15 16  2  0  0  0
 17 18  2  0  0  0
M  END
> <rmsd>
0.469236493

$$$$
CHEMBL4649816


 23 26  0  0  0  0  0  0  0  0999 V2000
   -4.0614    6.3868    0.1164 C   0  0  0  0  0
   -2.6458    5.8373   -0.0949 C   0  0  0  0  0
   -2.1959    6.2369   -1.5124 C   0  0  0  0  0
   -4.3413    7.0992   -1.1430 C   0  0  0  0  0
   -3.2881    7.5409   -3.4251 C   0  0  0  0  0
   -3.2036    9.0297   -3.4279 C   0  0  0  0  0
   -4.3550    9.7950   -3.6427 C   0  0  0  0  0
   -4.2800   11.1911   -3.6303 C   0  0  0  0  0
   -3.0541   11.8236   -3.4007 C   0  0  0  0  0
   -1.9032   11.0601   -3.1826 C   0  0  0  0  0
   -1.9777    9.6639   -3.1947 C   0  0  0  0  0
   -1.4755    3.5941    0.0569 C   0  0  0  0  0
    0.9036    3.4021    0.0259 C   0  0  0  0  0
   -0.4095    1.4775    0.1654 C   0  0  0  0  0
   -1.5403    2.2105    0.1425 C   0  0  0  0  0
   -2.0541    0.1690    0.2749 C   0  0  0  0  0
   -3.2716    7.0331   -2.0608 N   0  0  0  0  0
   -2.6648    4.3875    0.0350 N   0  0  0  0  0
   -0.2347    4.1673    0.0011 N   0  0  0  0  0
    0.8220    2.0393    0.1088 N   0  0  0  0  0
   -2.6122    1.4100    0.2106 N   0  0  0  0  0
   -0.6923    0.1723    0.2493 N   0  0  0  0  0
   -5.4251    7.6923   -1.3860 O   0  0  0  0  0
  1  2  1  0  0  0
  1  4  1  0  0  0
  2  3  1  0  0  0
  2 18  1  0  0  0
  3 17  1  0  0  0
  5 17  1  0  0  0
  5  6  1  0  0  0
  7  8  1  0  0  0
  9 10  1  0  0  0
 11  6  1  0  0  0
 13 19  1  0  0  0
 14 20  1  0  0  0
 14 22  1  0  0  0
 15 21  1  0  0  0
 15 12  1  0  0  0
 17  4  1  0  0  0
 18 12  1  0  0  0
 21 16  1  0  0  0
  4 23  2  0  0  0
  6  7  2  0  0  0
  8  9  2  0  0  0
 10 11  2  0  0  0
 12 19  2  0  0  0
 13 20  2  0  0  0
 14 15  2  0  0  0
 16 22  2  0  0  0
M  END
> <rmsd>
0.102196544

$$$$
CHEMBL3669559


 31 36  0  0  0  0  0  0  0  0999 V2000
   -3.6618    0.3983   -3.0999 O   0  0  0  0  0
   -3.0009   -0.4181   -3.7990 C   0  0  0  0  0
   -3.2549   -2.3170   -2.1665 C   0  0  0  0  0
   -2.0435   -1.9840   -1.3553 C   0  0  0  0  0
   -0.8227   -2.6486   -1.3921 C   0  0  0  0  0
   -0.5592   -0.9294   -0.1299 C   0  0  0  0  0
   -0.0279    0.0544    0.7021 C   0  0  0  0  0
   -0.8769    1.1038    1.0978 C   0  0  0  0  0
   -2.2172    1.1468    0.6580 C   0  0  0  0  0
   -2.7250    0.1419   -0.1842 C   0  0  0  0  0
   -1.8584   -0.8852   -0.5540 C   0  0  0  0  0
   -2.9417   -2.7779   -4.6203 C   0  0  0  0  0
   -1.7739   -2.3752   -5.5131 C   0  0  0  0  0
   -1.9695   -0.9365   -5.9981 C   0  0  0  0  0
   -2.0096    0.0648   -4.8366 C   0  0  0  0  0
   -0.6083    0.1087   -4.1864 C   0  0  0  0  0
   -0.0100    1.5094   -4.0885 C   0  0  0  0  0
   -2.2715    2.5686   -4.3972 C   0  0  0  0  0
   -2.4213    1.4322   -5.4183 C   0  0  0  0  0
   -0.8131    3.1712   -2.4026 C   0  0  0  0  0
    0.6874    3.8842   -0.6808 C   0  0  0  0  0
   -1.5676    4.4743   -0.5461 C   0  0  0  0  0
   -3.6598    4.7001   -0.8631 C   0  0  0  0  0
   -3.1918    3.9492   -1.9435 C   0  0  0  0  0
   -1.8394    3.8266   -1.7102 C   0  0  0  0  0
   -3.0935   -1.8238   -3.5284 N   0  0  0  0  0
    0.0895   -1.9987   -0.6255 N   0  0  0  0  0
   -1.0301    2.4449   -3.6281 N   0  0  0  0  0
    0.4380    3.2199   -1.8512 N   0  0  0  0  0
   -0.3216    4.5182   -0.0180 N   0  0  0  0  0
   -2.6623    5.0212   -0.0032 N   0  0  0  0  0
  2 26  1  0  0  0
  3 26  1  0  0  0
  3  4  1  0  0  0
  5 27  1  0  0  0
  7  8  1  0  0  0
  9 10  1  0  0  0
 11  4  1  0  0  0
 11  6  1  0  0  0
 12 26  1  0  0  0
 12 13  1  0  0  0
 13 14  1  0  0  0
 14 15  1  0  0  0
 15 16  1  0  0  0
 15  2  1  0  0  0
 16 17  1  0  0  0
 17 28  1  0  0  0
 18 28  1  0  0  0
 18 19  1  0  0  0
 19 15  1  0  0  0
 21 29  1  0  0  0
 22 30  1  0  0  0
 22 31  1  0  0  0
 24 25  1  0  0  0
 25 20  1  0  0  0
 27  6  1  0  0  0
 28 20  1  0  0  0
 31 23  1  0  0  0
  2  1  2  0  0  0
  4  5  2  0  0  0
  6  7  2  0  0  0
  8  9  2  0  0  0
 10 11  2  0  0  0
 20 29  2  0  0  0
 21 30  2  0  0  0
 23 24  2  0  0  0
 25 22  2  0  0  0
M  END
> <rmsd>
0.678107142

$$$$
CHEMBL3356063


 28 31  0  0  0  0  0  0  0  0999 V2000
   -1.8880    6.2950   -0.1002 N   0  0  0  0  0
   -2.8290    8.8731   -0.6579 N   0  0  0  0  0
   -3.1905   12.0803   -3.3604 N   0  0  0  0  0
   -3.2170    9.7568   -2.8798 N   0  0  0  0  0
   -2.8538   13.5368   -1.4862 N   0  0  0  0  0
   -2.3648    3.8611    0.0594 N   0  0  0  0  0
   -0.9252    7.4058   -0.1533 C   0  0  0  0  0
   -1.6071    8.7430    0.1373 C   0  0  0  0  0
   -3.7558    7.7448   -0.7789 C   0  0  0  0  0
   -3.3164    6.5633    0.0840 C   0  0  0  0  0
   -2.9726    9.9809   -1.5539 C   0  0  0  0  0
   -2.8504   11.3117   -1.1358 C   0  0  0  0  0
   -2.9556   12.3200   -2.0481 C   0  0  0  0  0
   -3.3233   10.7868   -3.7747 C   0  0  0  0  0
   -2.6899   13.2970   -0.1612 C   0  0  0  0  0
   -2.6867   11.9289    0.0860 C   0  0  0  0  0
   -2.6242   11.3028    1.4347 C   0  0  0  0  0
   -0.2559    7.4579   -1.5175 C   0  0  0  0  0
   -1.4190    4.9390   -0.0241 C   0  0  0  0  0
   -2.0691    2.4601    0.1376 C   0  0  0  0  0
   -0.7519    1.9773    0.1382 C   0  0  0  0  0
   -0.4945    0.5990    0.2155 C   0  0  0  0  0
   -1.5666   -0.2952    0.2923 C   0  0  0  0  0
   -2.8810    0.1787    0.2921 C   0  0  0  0  0
   -3.1297    1.5517    0.2150 C   0  0  0  0  0
    1.9549    0.9328    0.1424 C   0  0  0  0  0
   -0.1802    4.7023   -0.0323 O   0  0  0  0  0
    0.8091    0.0956    0.2175 O   0  0  0  0  0
  1 19  1  0  0  0
  2 11  1  0  0  0
  5 15  1  0  0  0
  6 20  1  0  0  0
  7  1  1  0  0  0
  7  8  1  0  0  0
  7 18  1  0  0  0
  8  2  1  0  0  0
  9  2  1  0  0  0
  9 10  1  0  0  0
 10  1  1  0  0  0
 11  4  1  0  0  0
 12 13  1  0  0  0
 13  5  1  0  0  0
 14  3  1  0  0  0
 16 12  1  0  0  0
 17 16  1  0  0  0
 19  6  1  0  0  0
 21 22  1  0  0  0
 22 28  1  0  0  0
 23 24  1  0  0  0
 25 20  1  0  0  0
 26 28  1  0  0  0
 11 12  2  0  0  0
 13  3  2  0  0  0
 14  4  2  0  0  0
 15 16  2  0  0  0
 19 27  2  0  0  0
 20 21  2  0  0  0
 22 23  2  0  0  0
 24 25  2  0  0  0
M  END
> <rmsd>
0.468279094

$$$$
CHEMBL570820


 28 31  0  0  0  0  0  0  0  0999 V2000
   -5.8627    9.6832   -0.1762 C   0  0  0  0  0
   -5.4778   10.4883   -1.3671 C   0  0  0  0  0
   -6.2767   11.4516   -1.9728 C   0  0  0  0  0
   -4.3824   11.4930   -2.9705 C   0  0  0  0  0
   -2.1536   11.2036   -3.6155 C   0  0  0  0  0
   -3.0483    9.8439   -1.8675 C   0  0  0  0  0
   -3.7637    7.6239   -0.9516 C   0  0  0  0  0
   -3.3200    6.5631    0.0507 C   0  0  0  0  0
   -1.4194    4.9388   -0.0272 C   0  0  0  0  0
   -2.0682    2.4598    0.1387 C   0  0  0  0  0
   -3.1288    1.5516    0.2235 C   0  0  0  0  0
   -2.8802    0.1782    0.3004 C   0  0  0  0  0
   -1.5663   -0.2978    0.2930 C   0  0  0  0  0
   -0.4980    0.6043    0.2080 C   0  0  0  0  0
   -0.7510    1.9769    0.1312 C   0  0  0  0  0
   -0.9402    7.4115   -0.2406 C   0  0  0  0  0
   -0.2340    7.3448   -1.5863 C   0  0  0  0  0
   -1.6495    8.7620   -0.1087 C   0  0  0  0  0
   -4.2653   10.5191   -2.0228 C   0  0  0  0  0
   -5.5959   12.0711   -2.9689 N   0  0  0  0  0
   -3.3471   11.8472   -3.7691 N   0  0  0  0  0
   -2.0118   10.2192   -2.6752 N   0  0  0  0  0
   -2.8671    8.7837   -0.9223 N   0  0  0  0  0
   -1.8895    6.2947   -0.1046 N   0  0  0  0  0
   -2.3645    3.8607    0.0604 N   0  0  0  0  0
   -0.1804    4.7031   -0.0316 O   0  0  0  0  0
   -1.3377   -1.6320    0.3681 F   0  0  0  0  0
    1.3075   -0.0156    0.1954 Br  0  0  0  0  0
  1  2  1  0  0  0
  3 20  1  0  0  0
  5 21  1  0  0  0
  6 22  1  0  0  0
  6 23  1  0  0  0
  7 23  1  0  0  0
  7  8  1  0  0  0
  8 24  1  0  0  0
  9 25  1  0  0  0
 11 12  1  0  0  0
 13 27  1  0  0  0
 13 14  1  0  0  0
 14 28  1  0  0  0
 15 10  1  0  0  0
 16 24  1  0  0  0
 16 17  1  0  0  0
 16 18  1  0  0  0
 18 23  1  0  0  0
 19  2  1  0  0  0
 19  4  1  0  0  0
 20  4  1  0  0  0
 24  9  1  0  0  0
 25 10  1  0  0  0
  2  3  2  0  0  0
  4 21  2  0  0  0
  5 22  2  0  0  0
  6 19  2  0  0  0
  9 26  2  0  0  0
 10 11  2  0  0  0
 12 13  2  0  0  0
 14 15  2  0  0  0
M  END
> <rmsd>
0.46878469

$$$$
CHEMBL571942


 27 30  0  0  0  0  0  0  0  0999 V2000
   -0.6156   10.5586   -2.2632 C   0  0  0  0  0
   -1.6785   11.5349   -1.9073 C   0  0  0  0  0
   -1.6612   12.8845   -2.2395 C   0  0  0  0  0
   -3.5414   12.4974   -1.2919 C   0  0  0  0  0
   -5.4323   11.5301   -0.3160 C   0  0  0  0  0
   -3.5254   10.1619   -0.7699 C   0  0  0  0  0
   -3.7195    7.6921   -0.9216 C   0  0  0  0  0
   -3.3216    6.5611    0.0173 C   0  0  0  0  0
   -1.4202    4.9384   -0.0262 C   0  0  0  0  0
   -2.0687    2.4593    0.1387 C   0  0  0  0  0
   -3.1296    1.5503    0.2219 C   0  0  0  0  0
   -2.8807    0.1766    0.2987 C   0  0  0  0  0
   -1.5661   -0.2969    0.2927 C   0  0  0  0  0
   -0.5008    0.6036    0.2097 C   0  0  0  0  0
   -0.7509    1.9766    0.1328 C   0  0  0  0  0
   -0.9373    7.4060   -0.2310 C   0  0  0  0  0
   -0.2933    7.3867   -1.6076 C   0  0  0  0  0
   -1.6076    8.7646    0.0138 C   0  0  0  0  0
   -2.8897   11.2978   -1.2912 C   0  0  0  0  0
   -2.8164   13.4798   -1.8540 N   0  0  0  0  0
   -4.8014   12.6320   -0.8141 N   0  0  0  0  0
   -4.7995   10.3172   -0.2986 N   0  0  0  0  0
   -2.8901    8.8783   -0.6913 N   0  0  0  0  0
   -1.8899    6.2942   -0.1027 N   0  0  0  0  0
   -2.3652    3.8601    0.0606 N   0  0  0  0  0
   -0.1811    4.7028   -0.0318 O   0  0  0  0  0
    1.2926   -0.0390    0.2010 Br  0  0  0  0  0
  1  2  1  0  0  0
  3 20  1  0  0  0
  5 21  1  0  0  0
  6 22  1  0  0  0
  6 23  1  0  0  0
  7 23  1  0  0  0
  7  8  1  0  0  0
  8 24  1  0  0  0
  9 25  1  0  0  0
 11 12  1  0  0  0
 13 14  1  0  0  0
 14 27  1  0  0  0
 15 10  1  0  0  0
 16 24  1  0  0  0
 16 17  1  0  0  0
 16 18  1  0  0  0
 18 23  1  0  0  0
 19  2  1  0  0  0
 19  4  1  0  0  0
 20  4  1  0  0  0
 24  9  1  0  0  0
 25 10  1  0  0  0
  2  3  2  0  0  0
  4 21  2  0  0  0
  5 22  2  0  0  0
  6 19  2  0  0  0
  9 26  2  0  0  0
 10 11  2  0  0  0
 12 13  2  0  0  0
 14 15  2  0  0  0
M  END
> <rmsd>
0.468944222

$$$$
CHEMBL1630789


 27 30  0  0  0  0  0  0  0  0999 V2000
   -2.1049   10.9460   -1.9179 N   0  0  0  0  0
   -1.6033   13.0583   -2.8721 N   0  0  0  0  0
    0.4487   14.0616   -2.1550 N   0  0  0  0  0
   -0.6607    9.8324   -0.3064 N   0  0  0  0  0
   -1.8679    6.2560   -0.0900 N   0  0  0  0  0
   -2.3741    3.8308    0.0613 N   0  0  0  0  0
   -2.1264   -0.0950    0.2912 N   0  0  0  0  0
   -2.4291   11.9792   -2.7544 C   0  0  0  0  0
   -0.4619   13.0796   -2.1443 C   0  0  0  0  0
    1.4029   13.6441   -1.2875 C   0  0  0  0  0
    1.0912   12.4006   -0.7335 C   0  0  0  0  0
   -0.1169   12.0654   -1.3055 C   0  0  0  0  0
   -0.9571   10.9492   -1.1722 C   0  0  0  0  0
   -1.5961    8.7040   -0.2624 C   0  0  0  0  0
   -0.8919    7.3445   -0.1997 C   0  0  0  0  0
   -3.3014    6.5498   -0.1139 C   0  0  0  0  0
   -3.6337    7.6574    0.8892 C   0  0  0  0  0
   -2.6757    8.8583    0.8268 C   0  0  0  0  0
   -2.0759    9.0745    2.2066 C   0  0  0  0  0
   -1.4176    4.8964   -0.0203 C   0  0  0  0  0
   -2.0561    2.4375    0.1384 C   0  0  0  0  0
   -0.7974    1.8520    0.1494 C   0  0  0  0  0
   -0.8801    0.4456    0.2352 C   0  0  0  0  0
    0.3348   -0.4100    0.2632 C   0  0  0  0  0
    0.4997    9.8357    0.5800 C   0  0  0  0  0
   -0.1819    4.6430   -0.0282 O   0  0  0  0  0
   -3.1628    1.2021    0.2333 S   0  0  0  0  0
  3 10  1  0  0  0
  5 20  1  0  0  0
  6 21  1  0  0  0
  7 27  1  0  0  0
  8  2  1  0  0  0
  9  3  1  0  0  0
 11 12  1  0  0  0
 12  9  1  0  0  0
 13  4  1  0  0  0
 13  1  1  0  0  0
 14  4  1  0  0  0
 14 15  1  0  0  0
 15  5  1  0  0  0
 16  5  1  0  0  0
 16 17  1  0  0  0
 17 18  1  0  0  0
 18 19  1  0  0  0
 18 14  1  0  0  0
 20  6  1  0  0  0
 21 27  1  0  0  0
 22 23  1  0  0  0
 24 23  1  0  0  0
 25  4  1  0  0  0
  8  1  2  0  0  0
  9  2  2  0  0  0
 10 11  2  0  0  0
 12 13  2  0  0  0
 20 26  2  0  0  0
 21 22  2  0  0  0
 23  7  2  0  0  0
M  END
> <rmsd>
0.463496119

$$$$
CHEMBL4167162


 27 30  0  0  0  0  0  0  0  0999 V2000
   -2.0711    2.4577    0.1407 C   0  0  0  0  0
   -0.7544    1.9723    0.1078 C   0  0  0  0  0
   -0.5012    0.5999    0.1831 C   0  0  0  0  0
   -1.5633   -0.3007    0.2913 C   0  0  0  0  0
   -2.8896    0.1759    0.3240 C   0  0  0  0  0
   -3.1334    1.5538    0.2479 C   0  0  0  0  0
   -3.9311   -0.7565    0.4323 C   0  0  0  0  0
   -2.3434   -2.5212    0.4694 C   0  0  0  0  0
   -6.4789   -1.1112    0.5741 C   0  0  0  0  0
   -6.4250   -2.5110    0.6589 C   0  0  0  0  0
   -7.6009   -3.2596    0.7610 C   0  0  0  0  0
   -8.8397   -2.6136    0.7789 C   0  0  0  0  0
   -8.9017   -1.2203    0.6948 C   0  0  0  0  0
   -7.7244   -0.4732    0.5928 C   0  0  0  0  0
   -1.4179    4.9296   -0.0422 C   0  0  0  0  0
   -1.9133    6.3423   -0.1794 C   0  0  0  0  0
   -0.9523    6.6324   -2.3721 C   0  0  0  0  0
   -1.2282    5.6577   -3.4974 C   0  0  0  0  0
   -2.7276    5.5685   -3.5699 C   0  0  0  0  0
   -3.1881    5.9053   -2.1726 C   0  0  0  0  0
   -3.6291   -2.0822    0.5023 N   0  0  0  0  0
   -1.3207   -1.6340    0.3646 N   0  0  0  0  0
   -5.2959   -0.3069    0.4681 N   0  0  0  0  0
   -2.3653    3.8587    0.0605 N   0  0  0  0  0
   -2.1674    6.7561   -1.5671 N   0  0  0  0  0
  -10.3131   -3.5493    0.9066 Cl  0  0  0  0  0
   -0.1781    4.7078   -0.0320 O   0  0  0  0  0
  1 24  1  0  0  0
  2  3  1  0  0  0
  4  5  1  0  0  0
  4 22  1  0  0  0
  5  7  1  0  0  0
  6  1  1  0  0  0
  7 23  1  0  0  0
  8 21  1  0  0  0
 10 11  1  0  0  0
 12 13  1  0  0  0
 12 26  1  0  0  0
 14  9  1  0  0  0
 16 15  1  0  0  0
 16 25  1  0  0  0
 17 25  1  0  0  0
 17 18  1  0  0  0
 18 19  1  0  0  0
 19 20  1  0  0  0
 20 25  1  0  0  0
 23  9  1  0  0  0
 24 15  1  0  0  0
  1  2  2  0  0  0
  3  4  2  0  0  0
  5  6  2  0  0  0
  7 21  2  0  0  0
  8 22  2  0  0  0
  9 10  2  0  0  0
 11 12  2  0  0  0
 13 14  2  0  0  0
 15 27  2  0  0  0
M  END
> <rmsd>
0.472044677

$$$$
CHEMBL3352853


 28 31  0  0  0  0  0  0  0  0999 V2000
   -1.3769    5.7715   -1.6381 N   0  0  0  0  0
   -1.3450    7.3665   -3.9221 N   0  0  0  0  0
   -1.4643    9.4282   -7.5921 N   0  0  0  0  0
   -1.8506    9.3294   -5.2532 N   0  0  0  0  0
   -0.6208    7.4248   -8.6028 N   0  0  0  0  0
   -2.5353    4.3273    0.0349 N   0  0  0  0  0
   -2.6396    6.4099   -2.0677 C   0  0  0  0  0
   -2.3708    7.6437   -2.9278 C   0  0  0  0  0
   -0.0705    6.8768   -3.4203 C   0  0  0  0  0
   -0.3010    5.6041   -2.6194 C   0  0  0  0  0
   -1.3972    8.0415   -5.1848 C   0  0  0  0  0
   -0.9799    7.4408   -6.3788 C   0  0  0  0  0
   -1.0187    8.1500   -7.5434 C   0  0  0  0  0
   -1.8841   10.0181   -6.4354 C   0  0  0  0  0
   -0.3274    6.2007   -8.0977 C   0  0  0  0  0
   -0.5427    6.1800   -6.7244 C   0  0  0  0  0
   -0.4109    4.9796   -5.8560 C   0  0  0  0  0
   -3.4695    6.8814   -0.8826 C   0  0  0  0  0
   -1.3303    4.8741   -0.5128 C   0  0  0  0  0
   -2.5419    3.3671    1.1307 C   0  0  0  0  0
   -3.9389    3.2713    1.7159 C   0  0  0  0  0
   -2.0735    2.0238    0.6613 C   0  0  0  0  0
   -0.9580    1.4379    1.2700 C   0  0  0  0  0
   -0.4977    0.1892    0.8411 C   0  0  0  0  0
   -1.1510   -0.4775   -0.1995 C   0  0  0  0  0
   -2.2648    0.1038   -0.8125 C   0  0  0  0  0
   -2.7258    1.3521   -0.3844 C   0  0  0  0  0
   -0.2153    4.5443   -0.0225 O   0  0  0  0  0
  1 19  1  0  0  0
  2 11  1  0  0  0
  5 15  1  0  0  0
  7  1  1  0  0  0
  7  8  1  0  0  0
  7 18  1  0  0  0
  8  2  1  0  0  0
  9  2  1  0  0  0
  9 10  1  0  0  0
 10  1  1  0  0  0
 11  4  1  0  0  0
 12 13  1  0  0  0
 13  5  1  0  0  0
 14  3  1  0  0  0
 16 12  1  0  0  0
 17 16  1  0  0  0
 19  6  1  0  0  0
 20  6  1  0  0  0
 20 21  1  0  0  0
 20 22  1  0  0  0
 23 24  1  0  0  0
 25 26  1  0  0  0
 27 22  1  0  0  0
 11 12  2  0  0  0
 13  3  2  0  0  0
 14  4  2  0  0  0
 15 16  2  0  0  0
 19 28  2  0  0  0
 22 23  2  0  0  0
 24 25  2  0  0  0
 26 27  2  0  0  0
M  END
> <rmsd>
0.256884247

$$$$
CHEMBL572170


 32 35  0  0  0  0  0  0  0  0999 V2000
   -9.0893   -5.3192    0.4839 C   0  0  0  0  0
   -9.6943   -5.4361    1.8381 C   0  0  0  0  0
  -10.7455   -6.2812    2.1758 C   0  0  0  0  0
  -10.2992   -5.1126    3.9138 C   0  0  0  0  0
   -9.4828   -3.5407    5.4400 C   0  0  0  0  0
   -8.5108   -3.6663    3.2615 C   0  0  0  0  0
   -7.1880   -1.7843    2.3085 C   0  0  0  0  0
   -6.6687   -1.3716    0.9308 C   0  0  0  0  0
   -4.2723   -1.8524    0.4463 C   0  0  0  0  0
   -2.7231    0.1905    0.2863 C   0  0  0  0  0
   -1.5284   -0.5440    0.3074 C   0  0  0  0  0
   -0.2958    0.1101    0.2447 C   0  0  0  0  0
   -0.2489    1.5036    0.1601 C   0  0  0  0  0
   -1.4342    2.2519    0.1379 C   0  0  0  0  0
   -1.3872    3.7217    0.0484 C   0  0  0  0  0
   -2.6276    5.9278   -0.0868 C   0  0  0  0  0
   -2.3037    6.3397   -1.5101 C   0  0  0  0  0
   -4.0069    6.4360    0.2753 C   0  0  0  0  0
   -2.6664    1.5856    0.2012 C   0  0  0  0  0
   -6.0722   -3.7151    0.4379 C   0  0  0  0  0
   -5.0518   -4.6781   -0.1478 C   0  0  0  0  0
   -6.5475   -4.1658    1.8118 C   0  0  0  0  0
   -9.4125   -4.6954    2.9657 C   0  0  0  0  0
  -11.1169   -6.0805    3.4648 N   0  0  0  0  0
  -10.3503   -4.5524    5.1461 N   0  0  0  0  0
   -8.5802   -3.1069    4.5070 N   0  0  0  0  0
   -7.5308   -3.2086    2.3221 N   0  0  0  0  0
   -5.6377   -2.3117    0.5055 N   0  0  0  0  0
   -4.0076   -0.4441    0.3483 N   0  0  0  0  0
   -2.6031    4.4773    0.0284 N   0  0  0  0  0
   -3.3177   -2.6732    0.5054 O   0  0  0  0  0
   -0.2753    4.3156   -0.0067 O   0  0  0  0  0
  1  2  1  0  0  0
  3 24  1  0  0  0
  5 25  1  0  0  0
  6 26  1  0  0  0
  6 27  1  0  0  0
  7 27  1  0  0  0
  7  8  1  0  0  0
  8 28  1  0  0  0
  9 29  1  0  0  0
 11 12  1  0  0  0
 13 14  1  0  0  0
 14 15  1  0  0  0
 15 30  1  0  0  0
 16 30  1  0  0  0
 16 17  1  0  0  0
 16 18  1  0  0  0
 19 10  1  0  0  0
 20 28  1  0  0  0
 20 21  1  0  0  0
 20 22  1  0  0  0
 22 27  1  0  0  0
 23  2  1  0  0  0
 23  4  1  0  0  0
 24  4  1  0  0  0
 28  9  1  0  0  0
 29 10  1  0  0  0
  2  3  2  0  0  0
  4 25  2  0  0  0
  5 26  2  0  0  0
  6 23  2  0  0  0
  9 31  2  0  0  0
 10 11  2  0  0  0
 12 13  2  0  0  0
 14 19  2  0  0  0
 15 32  2  0  0  0
M  END
> <rmsd>
0.136482269

$$$$
CHEMBL571502


 27 30  0  0  0  0  0  0  0  0999 V2000
   -0.1539   10.4170    2.9460 C   0  0  0  0  0
   -1.1263   11.3633    2.3349 C   0  0  0  0  0
   -1.0895   12.7466    2.4699 C   0  0  0  0  0
   -2.8674   12.2723    1.3747 C   0  0  0  0  0
   -4.6763   11.2147    0.3374 C   0  0  0  0  0
   -2.8882    9.8877    1.2024 C   0  0  0  0  0
   -3.1548    7.4436    1.6550 C   0  0  0  0  0
   -3.2503    6.5757    0.3985 C   0  0  0  0  0
   -1.4203    4.9408   -0.0332 C   0  0  0  0  0
   -2.0676    2.4608    0.1380 C   0  0  0  0  0
   -3.1284    1.5529    0.2318 C   0  0  0  0  0
   -2.8799    0.1790    0.3091 C   0  0  0  0  0
   -1.5657   -0.2954    0.2926 C   0  0  0  0  0
   -0.5006    0.6040    0.1987 C   0  0  0  0  0
   -0.7502    1.9770    0.1215 C   0  0  0  0  0
   -1.0844    7.4874   -0.3898 C   0  0  0  0  0
    0.2732    7.1999   -1.0110 C   0  0  0  0  0
   -0.9549    8.3336    0.8693 C   0  0  0  0  0
   -2.2701   11.0717    1.6225 C   0  0  0  0  0
   -2.1690   13.3081    1.8709 N   0  0  0  0  0
   -4.0604   12.3641    0.7397 N   0  0  0  0  0
   -4.0951    9.9975    0.5700 N   0  0  0  0  0
   -2.2938    8.5971    1.3941 N   0  0  0  0  0
   -1.9037    6.2980   -0.0961 N   0  0  0  0  0
   -2.3639    3.8619    0.0598 N   0  0  0  0  0
   -0.1831    4.7008   -0.0325 O   0  0  0  0  0
    1.2923   -0.0400    0.1758 Br  0  0  0  0  0
  1  2  1  0  0  0
  3 20  1  0  0  0
  5 21  1  0  0  0
  6 22  1  0  0  0
  6 23  1  0  0  0
  7 23  1  0  0  0
  7  8  1  0  0  0
  8 24  1  0  0  0
  9 25  1  0  0  0
 11 12  1  0  0  0
 13 14  1  0  0  0
 14 27  1  0  0  0
 15 10  1  0  0  0
 16 24  1  0  0  0
 16 17  1  0  0  0
 16 18  1  0  0  0
 18 23  1  0  0  0
 19  2  1  0  0  0
 19  4  1  0  0  0
 20  4  1  0  0  0
 24  9  1  0  0  0
 25 10  1  0  0  0
  2  3  2  0  0  0
  4 21  2  0  0  0
  5 22  2  0  0  0
  6 19  2  0  0  0
  9 26  2  0  0  0
 10 11  2  0  0  0
 12 13  2  0  0  0
 14 15  2  0  0  0
M  END
> <rmsd>
0.467851728

$$$$
CHEMBL583464


 27 30  0  0  0  0  0  0  0  0999 V2000
   -0.2812   10.0225   -3.6674 C   0  0  0  0  0
   -1.2317   11.0370   -3.1361 C   0  0  0  0  0
   -1.2033   12.3942   -3.4358 C   0  0  0  0  0
   -2.9368   12.0573   -2.2246 C   0  0  0  0  0
   -4.7020   11.1343   -1.0003 C   0  0  0  0  0
   -2.9452    9.7101   -1.7695 C   0  0  0  0  0
   -3.2231    7.2301   -1.9180 C   0  0  0  0  0
   -3.2682    6.5178   -0.5645 C   0  0  0  0  0
   -1.4192    4.9419   -0.0120 C   0  0  0  0  0
   -2.0667    2.4606    0.1380 C   0  0  0  0  0
   -3.1282    1.5504    0.1932 C   0  0  0  0  0
   -2.8798    0.1765    0.2705 C   0  0  0  0  0
   -1.5649   -0.2957    0.2933 C   0  0  0  0  0
   -0.4989    0.6061    0.2388 C   0  0  0  0  0
   -0.7487    1.9791    0.1616 C   0  0  0  0  0
   -1.0758    7.5120    0.0262 C   0  0  0  0  0
    0.3054    7.2975    0.6246 C   0  0  0  0  0
   -0.9969    8.2024   -1.3286 C   0  0  0  0  0
   -2.3465   10.8344   -2.3508 C   0  0  0  0  0
   -2.2605   13.0254   -2.8667 N   0  0  0  0  0
   -4.1048   12.2264   -1.5597 N   0  0  0  0  0
   -4.1272    9.8970   -1.1087 N   0  0  0  0  0
   -2.3555    8.4047   -1.8291 N   0  0  0  0  0
   -1.9029    6.2980   -0.0925 N   0  0  0  0  0
   -2.3631    3.8616    0.0601 N   0  0  0  0  0
   -0.1823    4.7008   -0.0315 O   0  0  0  0  0
    1.1487    0.0173    0.2673 Cl  0  0  0  0  0
  1  2  1  0  0  0
  3 20  1  0  0  0
  5 21  1  0  0  0
  6 22  1  0  0  0
  6 23  1  0  0  0
  7 23  1  0  0  0
  7  8  1  0  0  0
  8 24  1  0  0  0
  9 25  1  0  0  0
 11 12  1  0  0  0
 13 14  1  0  0  0
 14 27  1  0  0  0
 15 10  1  0  0  0
 16 24  1  0  0  0
 16 17  1  0  0  0
 16 18  1  0  0  0
 18 23  1  0  0  0
 19  2  1  0  0  0
 19  4  1  0  0  0
 20  4  1  0  0  0
 24  9  1  0  0  0
 25 10  1  0  0  0
  2  3  2  0  0  0
  4 21  2  0  0  0
  5 22  2  0  0  0
  6 19  2  0  0  0
  9 26  2  0  0  0
 10 11  2  0  0  0
 12 13  2  0  0  0
 14 15  2  0  0  0
M  END
> <rmsd>
0.46763432

$$$$
CHEMBL3356425


 30 33  0  0  0  0  0  0  0  0999 V2000
    0.9600   10.2383   -2.2829 C   0  0  0  0  0
   -0.1123   11.1302   -2.8020 C   0  0  0  0  0
    0.0900   12.4004   -3.3301 C   0  0  0  0  0
   -1.9892   11.9473   -3.5699 C   0  0  0  0  0
   -1.4544   10.8537   -2.9549 C   0  0  0  0  0
   -2.2661    9.7475   -2.6753 C   0  0  0  0  0
   -4.0870   10.9207   -3.6814 C   0  0  0  0  0
   -2.1805    7.2644   -2.4768 C   0  0  0  0  0
   -2.8346    6.4883   -1.3378 C   0  0  0  0  0
   -1.9259    6.3585   -0.0998 C   0  0  0  0  0
   -0.7496    7.3595   -0.1139 C   0  0  0  0  0
   -1.1424    8.7235   -0.6844 C   0  0  0  0  0
   -2.7681    6.6410    1.1324 C   0  0  0  0  0
   -1.4194    4.9398   -0.0206 C   0  0  0  0  0
   -2.0704    2.4608    0.1361 C   0  0  0  0  0
   -3.1303    1.5531    0.2098 C   0  0  0  0  0
   -2.8813    0.1820    0.2961 C   0  0  0  0  0
   -1.5671   -0.2906    0.3023 C   0  0  0  0  0
   -0.4839    0.6004    0.2044 C   0  0  0  0  0
   -0.7533    1.9792    0.1444 C   0  0  0  0  0
    0.9445    0.0954    0.2830 C   0  0  0  0  0
    1.0773   -1.3001   -0.3084 C   0  0  0  0  0
    1.9001    1.0035   -0.4766 C   0  0  0  0  0
    1.3778    0.0468    1.7357 C   0  0  0  0  0
   -1.0764   12.9061   -3.8028 N   0  0  0  0  0
   -3.5756    9.8131   -3.0609 N   0  0  0  0  0
   -3.2917   11.9995   -3.9384 N   0  0  0  0  0
   -1.7800    8.5845   -1.9960 N   0  0  0  0  0
   -2.3660    3.8620    0.0603 N   0  0  0  0  0
   -0.1798    4.7017   -0.0313 O   0  0  0  0  0
  1  2  1  0  0  0
  3 25  1  0  0  0
  4 27  1  0  0  0
  5  6  1  0  0  0
  5  2  1  0  0  0
  6 28  1  0  0  0
  7 26  1  0  0  0
  8 28  1  0  0  0
  8  9  1  0  0  0
  9 10  1  0  0  0
 10 11  1  0  0  0
 10 13  1  0  0  0
 10 14  1  0  0  0
 11 12  1  0  0  0
 12 28  1  0  0  0
 14 29  1  0  0  0
 16 17  1  0  0  0
 18 19  1  0  0  0
 20 15  1  0  0  0
 21 19  1  0  0  0
 21 22  1  0  0  0
 21 23  1  0  0  0
 21 24  1  0  0  0
 25  4  1  0  0  0
 29 15  1  0  0  0
  2  3  2  0  0  0
  4  5  2  0  0  0
  6 26  2  0  0  0
  7 27  2  0  0  0
 14 30  2  0  0  0
 15 16  2  0  0  0
 17 18  2  0  0  0
 19 20  2  0  0  0
M  END
> <rmsd>
0.467529058

$$$$
CHEMBL4468002


 31 35  0  0  0  0  0  0  0  0999 V2000
    3.1819    6.5805    0.8509 C   0  0  0  0  0
    3.2552    8.0959    0.6534 C   0  0  0  0  0
    2.5329    8.5519   -0.6236 C   0  0  0  0  0
    2.9787    7.7436   -1.8497 C   0  0  0  0  0
    3.7060    5.8640   -0.3878 C   0  0  0  0  0
    2.1298    5.3764   -2.2790 C   0  0  0  0  0
    1.4316    3.1169   -2.6417 C   0  0  0  0  0
    0.4034    4.8362   -3.8430 C   0  0  0  0  0
    1.1840    5.7700   -3.2366 C   0  0  0  0  0
    0.8055    7.0020   -3.7242 C   0  0  0  0  0
   -0.2184    6.7132   -4.6281 C   0  0  0  0  0
    1.0400    8.5897   -0.4708 C   0  0  0  0  0
    0.2889    7.4170   -0.3110 C   0  0  0  0  0
   -1.1082    7.4677   -0.2086 C   0  0  0  0  0
   -1.7512    8.7084   -0.2563 C   0  0  0  0  0
   -1.0092    9.8830   -0.4075 C   0  0  0  0  0
    0.3830    9.8228   -0.5198 C   0  0  0  0  0
   -1.4179    4.9322   -0.0219 C   0  0  0  0  0
   -2.0711    2.4595    0.1347 C   0  0  0  0  0
   -0.7572    1.9694    0.1181 C   0  0  0  0  0
   -1.5385   -0.2651    0.2954 C   0  0  0  0  0
   -2.8625    0.1778    0.3136 C   0  0  0  0  0
   -3.1245    1.5471    0.2313 C   0  0  0  0  0
    2.9518    6.3116   -1.5531 N   0  0  0  0  0
    2.2226    4.0381   -2.0102 N   0  0  0  0  0
    0.5103    3.5151   -3.5656 N   0  0  0  0  0
   -0.4674    5.3827   -4.7005 N   0  0  0  0  0
   -1.9017    6.2797   -0.0831 N   0  0  0  0  0
   -2.3670    3.8609    0.0607 N   0  0  0  0  0
   -0.5211    0.6325    0.1977 N   0  0  0  0  0
   -0.1806    4.6944   -0.0310 O   0  0  0  0  0
  1  2  1  0  0  0
  2  3  1  0  0  0
  3  4  1  0  0  0
  3 12  1  0  0  0
  4 24  1  0  0  0
  5 24  1  0  0  0
  5  1  1  0  0  0
  7 25  1  0  0  0
  8 26  1  0  0  0
  9 10  1  0  0  0
  9  6  1  0  0  0
 11 27  1  0  0  0
 13 14  1  0  0  0
 14 28  1  0  0  0
 15 16  1  0  0  0
 17 12  1  0  0  0
 18 29  1  0  0  0
 20 30  1  0  0  0
 21 22  1  0  0  0
 23 19  1  0  0  0
 24  6  1  0  0  0
 27  8  1  0  0  0
 28 18  1  0  0  0
 29 19  1  0  0  0
  6 25  2  0  0  0
  7 26  2  0  0  0
  8  9  2  0  0  0
 10 11  2  0  0  0
 12 13  2  0  0  0
 14 15  2  0  0  0
 16 17  2  0  0  0
 18 31  2  0  0  0
 19 20  2  0  0  0
 21 30  2  0  0  0
 22 23  2  0  0  0
M  END
> <rmsd>
0.465200096

$$$$
CHEMBL2152300


 23 26  0  0  0  0  0  0  0  0999 V2000
   -7.6999   -1.0982   -5.0272 N   0  0  0  0  0
   -5.3494   -1.5861   -0.7616 N   0  0  0  0  0
   -2.3081    0.3106    0.2714 N   0  0  0  0  0
   -0.0436    0.3250    0.2246 N   0  0  0  0  0
   -0.5004    3.9648    0.0181 N   0  0  0  0  0
   -2.6763    5.0050   -0.0024 N   0  0  0  0  0
   -6.8839   -1.0244   -4.2099 C   0  0  0  0  0
   -5.8473   -0.9301   -3.1730 C   0  0  0  0  0
   -6.2477   -1.5922   -1.8813 C   0  0  0  0  0
   -5.7043   -2.2807    0.4744 C   0  0  0  0  0
   -5.3987   -1.3895    1.6750 C   0  0  0  0  0
   -3.9479   -0.9194    1.6245 C   0  0  0  0  0
   -3.6876   -0.1589    0.3242 C   0  0  0  0  0
   -1.1722   -0.4362    0.2914 C   0  0  0  0  0
   -0.5176    1.5824    0.1611 C   0  0  0  0  0
    0.2040    2.7853    0.0746 C   0  0  0  0  0
   -1.8684    3.9387    0.0466 C   0  0  0  0  0
   -3.9287    4.4802    0.0530 C   0  0  0  0  0
   -3.9164    3.0822    0.1372 C   0  0  0  0  0
   -2.5779    2.7735    0.1305 C   0  0  0  0  0
   -1.8799    1.5754    0.1891 C   0  0  0  0  0
   -3.9991   -1.0405   -0.8843 C   0  0  0  0  0
   -7.3762   -2.1486   -1.7731 O   0  0  0  0  0
  3 14  1  0  0  0
  6 18  1  0  0  0
  8  7  1  0  0  0
  8  9  1  0  0  0
  9  2  1  0  0  0
 10  2  1  0  0  0
 10 11  1  0  0  0
 11 12  1  0  0  0
 12 13  1  0  0  0
 13  3  1  0  0  0
 13 22  1  0  0  0
 15  4  1  0  0  0
 16  5  1  0  0  0
 17  6  1  0  0  0
 19 20  1  0  0  0
 20 17  1  0  0  0
 21  3  1  0  0  0
 21 15  1  0  0  0
 22  2  1  0  0  0
  9 23  2  0  0  0
 14  4  2  0  0  0
 15 16  2  0  0  0
 17  5  2  0  0  0
 18 19  2  0  0  0
 20 21  2  0  0  0
  7  1  3  0  0  0
M  END
> <rmsd>
0.493044764

$$$$
CHEMBL3593766


 26 29  0  0  0  0  0  0  0  0999 V2000
   -2.1858    2.5573    0.1345 C   0  0  0  0  0
   -0.7950    2.2449    0.1275 C   0  0  0  0  0
   -0.3933    0.8904    0.2004 C   0  0  0  0  0
   -2.6251    0.1864    0.2833 C   0  0  0  0  0
   -3.0798    1.4716    0.2155 C   0  0  0  0  0
   -4.4562    1.4024    0.2460 C   0  0  0  0  0
   -4.7477    0.0418    0.3322 C   0  0  0  0  0
    0.2663    3.2799    0.0461 C   0  0  0  0  0
   -3.9546    4.5029    0.0409 C   0  0  0  0  0
   -4.7060    4.2209    1.3344 C   0  0  0  0  0
   -6.0906    4.8427    1.2586 C   0  0  0  0  0
   -6.8280    4.3290    0.0173 C   0  0  0  0  0
   -4.7426    4.0533   -1.1951 C   0  0  0  0  0
   -6.0498    6.0573   -1.4564 C   0  0  0  0  0
   -6.0020    6.3553   -2.9174 C   0  0  0  0  0
   -7.0823    6.0238   -3.7445 C   0  0  0  0  0
   -7.0318    6.3135   -5.1116 C   0  0  0  0  0
   -5.9034    6.9372   -5.6528 C   0  0  0  0  0
   -4.8260    7.2727   -4.8270 C   0  0  0  0  0
   -4.8760    6.9832   -3.4599 C   0  0  0  0  0
   -1.3072   -0.1167    0.2769 N   0  0  0  0  0
   -3.6205   -0.7071    0.3552 N   0  0  0  0  0
    1.6390    2.8963    0.0449 N   0  0  0  0  0
   -2.6100    3.9340    0.0605 N   0  0  0  0  0
   -6.1022    4.6139   -1.2293 N   0  0  0  0  0
   -0.0191    4.5043   -0.0230 O   0  0  0  0  0
  1 24  1  0  0  0
  2  3  1  0  0  0
  2  8  1  0  0  0
  4 21  1  0  0  0
  5  6  1  0  0  0
  5  1  1  0  0  0
  7 22  1  0  0  0
  8 23  1  0  0  0
  9 24  1  0  0  0
  9 10  1  0  0  0
 10 11  1  0  0  0
 11 12  1  0  0  0
 12 25  1  0  0  0
 13 25  1  0  0  0
 13  9  1  0  0  0
 14 25  1  0  0  0
 14 15  1  0  0  0
 16 17  1  0  0  0
 18 19  1  0  0  0
 20 15  1  0  0  0
 22  4  1  0  0  0
  1  2  2  0  0  0
  3 21  2  0  0  0
  4  5  2  0  0  0
  6  7  2  0  0  0
  8 26  2  0  0  0
 15 16  2  0  0  0
 17 18  2  0  0  0
 19 20  2  0  0  0
M  END
> <rmsd>
0.394257486

$$$$
CHEMBL4460419


 31 35  0  0  0  0  0  0  0  0999 V2000
    4.3924    7.2979    0.8300 C   0  0  0  0  0
    3.1276    8.1509    0.8379 C   0  0  0  0  0
    2.6168    8.4292   -0.5863 C   0  0  0  0  0
    3.1475    7.4372   -1.6349 C   0  0  0  0  0
    4.0904    5.9485    0.1795 C   0  0  0  0  0
    2.6871    4.9359   -1.6317 C   0  0  0  0  0
    2.4132    2.5585   -1.6460 C   0  0  0  0  0
    1.2056    3.8541   -3.1694 C   0  0  0  0  0
    1.7606    4.9974   -2.6835 C   0  0  0  0  0
    1.2286    6.0473   -3.4002 C   0  0  0  0  0
    0.3579    5.4398   -4.3075 C   0  0  0  0  0
    1.1230    8.5000   -0.6131 C   0  0  0  0  0
    0.3422    7.3580   -0.3885 C   0  0  0  0  0
   -1.0562    7.4232   -0.4506 C   0  0  0  0  0
   -1.6692    8.6498   -0.7267 C   0  0  0  0  0
   -0.8962    9.7950   -0.9445 C   0  0  0  0  0
    0.4979    9.7184   -0.8919 C   0  0  0  0  0
   -1.4154    4.9166   -0.0795 C   0  0  0  0  0
   -2.0739    2.4701    0.1422 C   0  0  0  0  0
   -3.1024    1.5613    0.4071 C   0  0  0  0  0
   -2.8116    0.1979    0.4790 C   0  0  0  0  0
   -1.5022   -0.2455    0.2836 C   0  0  0  0  0
   -0.4999    0.6893    0.0168 C   0  0  0  0  0
    3.3074    6.1020   -1.0529 N   0  0  0  0  0
    2.9839    3.6944   -1.1396 N   0  0  0  0  0
    1.5163    2.6340   -2.6714 N   0  0  0  0  0
    0.3440    4.0915   -4.1669 N   0  0  0  0  0
   -1.8764    6.2604   -0.2731 N   0  0  0  0  0
   -2.3787    3.8675    0.0608 N   0  0  0  0  0
   -0.8035    2.0136   -0.0486 N   0  0  0  0  0
   -0.1824    4.6607   -0.0288 O   0  0  0  0  0
  1  2  1  0  0  0
  2  3  1  0  0  0
  3  4  1  0  0  0
  3 12  1  0  0  0
  4 24  1  0  0  0
  5 24  1  0  0  0
  5  1  1  0  0  0
  7 25  1  0  0  0
  8 26  1  0  0  0
  9 10  1  0  0  0
  9  6  1  0  0  0
 11 27  1  0  0  0
 13 14  1  0  0  0
 14 28  1  0  0  0
 15 16  1  0  0  0
 17 12  1  0  0  0
 18 29  1  0  0  0
 19 30  1  0  0  0
 20 21  1  0  0  0
 22 23  1  0  0  0
 24  6  1  0  0  0
 27  8  1  0  0  0
 28 18  1  0  0  0
 29 19  1  0  0  0
  6 25  2  0  0  0
  7 26  2  0  0  0
  8  9  2  0  0  0
 10 11  2  0  0  0
 12 13  2  0  0  0
 14 15  2  0  0  0
 16 17  2  0  0  0
 18 31  2  0  0  0
 19 20  2  0  0  0
 21 22  2  0  0  0
 23 30  2  0  0  0
M  END
> <rmsd>
0.448428988

$$$$
CHEMBL2314501


 24 27  0  0  0  0  0  0  0  0999 V2000
   -0.5449    3.9270    0.0219 N   0  0  0  0  0
   -2.5536    2.6730    0.1383 N   0  0  0  0  0
    1.6655    2.9104    0.0401 N   0  0  0  0  0
    4.1540    4.2963    1.5662 N   0  0  0  0  0
   -2.2934    0.2971    0.2719 N   0  0  0  0  0
   -2.6681    5.0768   -0.0061 N   0  0  0  0  0
   -1.9122    3.8737    0.0526 C   0  0  0  0  0
   -1.8086    1.5438    0.1918 C   0  0  0  0  0
   -0.4463    1.5713    0.1631 C   0  0  0  0  0
    0.2270    2.7985    0.0771 C   0  0  0  0  0
    2.2782    4.2310   -0.0623 C   0  0  0  0  0
    2.7562    4.6668    1.3173 C   0  0  0  0  0
    4.4890    2.8868    1.2941 C   0  0  0  0  0
    3.3452    1.8954    1.5183 C   0  0  0  0  0
    2.5385    1.7552    0.2339 C   0  0  0  0  0
    4.4116    4.5392    2.9749 C   0  0  0  0  0
   -0.0022    0.2675    0.2258 C   0  0  0  0  0
   -1.1819   -0.4801    0.2929 C   0  0  0  0  0
   -1.2342   -1.9507    0.3769 C   0  0  0  0  0
   -2.4708   -2.6091    0.4391 C   0  0  0  0  0
   -2.5260   -4.0037    0.5191 C   0  0  0  0  0
   -1.3447   -4.7501    0.5373 C   0  0  0  0  0
   -0.1080   -4.1022    0.4757 C   0  0  0  0  0
   -0.0527   -2.7077    0.3957 C   0  0  0  0  0
  5  8  1  0  0  0
  7  2  1  0  0  0
  7  6  1  0  0  0
  8  9  1  0  0  0
  9 17  1  0  0  0
 10  3  1  0  0  0
 10  1  1  0  0  0
 11  3  1  0  0  0
 11 12  1  0  0  0
 12  4  1  0  0  0
 13  4  1  0  0  0
 13 14  1  0  0  0
 14 15  1  0  0  0
 15  3  1  0  0  0
 16  4  1  0  0  0
 18  5  1  0  0  0
 18 19  1  0  0  0
 20 21  1  0  0  0
 22 23  1  0  0  0
 24 19  1  0  0  0
  7  1  2  0  0  0
  8  2  2  0  0  0
  9 10  2  0  0  0
 17 18  2  0  0  0
 19 20  2  0  0  0
 21 22  2  0  0  0
 23 24  2  0  0  0
M  END
> <rmsd>
0.550384581

$$$$
CHEMBL4087971


 26 29  0  0  0  0  0  0  0  0999 V2000
   -2.7036    0.1940    0.2859 C   0  0  0  0  0
   -1.4949   -0.5100    0.3040 C   0  0  0  0  0
   -0.2794    0.1781    0.2393 C   0  0  0  0  0
   -0.2697    1.5733    0.1560 C   0  0  0  0  0
   -1.4865    2.2862    0.1371 C   0  0  0  0  0
   -2.7009    1.5899    0.2027 C   0  0  0  0  0
   -1.4364    3.6839    0.0544 C   0  0  0  0  0
    0.9340    3.5999    0.0123 C   0  0  0  0  0
   -2.6585    5.9099   -0.0062 C   0  0  0  0  0
   -2.2214    6.4946    1.3401 C   0  0  0  0  0
   -3.2495    6.1989    2.4339 C   0  0  0  0  0
   -4.6381    6.7432    2.0581 C   0  0  0  0  0
   -5.0689    6.1232    0.7178 C   0  0  0  0  0
   -4.0500    6.4167   -0.3855 C   0  0  0  0  0
   -6.0212    8.6627    1.7161 C   0  0  0  0  0
   -6.1259   10.1959    1.7438 C   0  0  0  0  0
   -4.3894   10.2683    3.3792 C   0  0  0  0  0
   -4.3015    8.7343    3.3374 C   0  0  0  0  0
   -5.1065   12.2247    2.3129 C   0  0  0  0  0
   -3.9487   -0.5170    0.3530 C   0  0  0  0  0
   -0.2270    4.3062   -0.0070 N   0  0  0  0  0
    0.9087    2.2441    0.0934 N   0  0  0  0  0
   -2.6445    4.4522    0.0307 N   0  0  0  0  0
   -4.6537    8.2145    2.0096 N   0  0  0  0  0
   -4.8472   10.8129    2.1000 N   0  0  0  0  0
   -4.9526   -1.0901    0.4070 N   0  0  0  0  0
  1 20  1  0  0  0
  2  3  1  0  0  0
  4  5  1  0  0  0
  4 22  1  0  0  0
  5  7  1  0  0  0
  6  1  1  0  0  0
  7 23  1  0  0  0
  8 21  1  0  0  0
  9 23  1  0  0  0
  9 10  1  0  0  0
 10 11  1  0  0  0
 11 12  1  0  0  0
 12 13  1  0  0  0
 12 24  1  0  0  0
 13 14  1  0  0  0
 14  9  1  0  0  0
 15 24  1  0  0  0
 15 16  1  0  0  0
 16 25  1  0  0  0
 17 25  1  0  0  0
 17 18  1  0  0  0
 18 24  1  0  0  0
 19 25  1  0  0  0
  1  2  2  0  0  0
  3  4  2  0  0  0
  5  6  2  0  0  0
  7 21  2  0  0  0
  8 22  2  0  0  0
 20 26  3  0  0  0
M  END
> <rmsd>
0.132084295

$$$$
CHEMBL3593768


 24 26  0  0  0  0  0  0  0  0999 V2000
   -0.2107    1.4412    0.1561 C   0  0  0  0  0
   -1.3910    2.2369    0.1376 C   0  0  0  0  0
   -2.6505    1.5946    0.2123 C   0  0  0  0  0
   -1.6208   -0.5084    0.3050 C   0  0  0  0  0
   -0.3797    0.0489    0.2371 C   0  0  0  0  0
    0.5294   -0.9876    0.2484 C   0  0  0  0  0
   -0.2537   -2.1399    0.3315 C   0  0  0  0  0
   -1.3641    3.7175    0.0490 C   0  0  0  0  0
    2.3576    1.3727    0.2718 C   0  0  0  0  0
    2.6026    1.1441    1.7624 C   0  0  0  0  0
    3.9304    0.4163    1.9522 C   0  0  0  0  0
    4.7464    2.3030    0.4620 C   0  0  0  0  0
    3.4814    2.1806   -0.3939 C   0  0  0  0  0
    6.3369    0.5185    1.2170 C   0  0  0  0  0
    6.6536   -0.7110    2.0050 C   0  0  0  0  0
    7.0549   -0.3447    3.3658 C   0  0  0  0  0
   -2.7501    0.2371    0.2946 N   0  0  0  0  0
   -1.5759   -1.8457    0.3654 N   0  0  0  0  0
   -2.5841    4.4542    0.0291 N   0  0  0  0  0
    1.0871    2.0541    0.0746 N   0  0  0  0  0
    5.0068    1.0601    1.1905 N   0  0  0  0  0
    7.3715   -0.0557    4.4407 N   0  0  0  0  0
   -0.2753    4.3476   -0.0089 O   0  0  0  0  0
    7.2665    1.0906    0.5863 O   0  0  0  0  0
  1 20  1  0  0  0
  2  3  1  0  0  0
  2  8  1  0  0  0
  4 17  1  0  0  0
  5  6  1  0  0  0
  5  1  1  0  0  0
  7 18  1  0  0  0
  8 19  1  0  0  0
  9 20  1  0  0  0
  9 10  1  0  0  0
 10 11  1  0  0  0
 11 21  1  0  0  0
 12 21  1  0  0  0
 12 13  1  0  0  0
 13  9  1  0  0  0
 15 14  1  0  0  0
 15 16  1  0  0  0
 18  4  1  0  0  0
 21 14  1  0  0  0
  1  2  2  0  0  0
  3 17  2  0  0  0
  4  5  2  0  0  0
  6  7  2  0  0  0
  8 23  2  0  0  0
 14 24  2  0  0  0
 16 22  3  0  0  0
M  END
> <rmsd>
0.140826091

$$$$
CHEMBL78377


 27 30  0  0  0  0  0  0  0  0999 V2000
   -2.6746   -1.2579    0.5410 C   0  0  0  0  0
   -1.9790    0.0426    0.3343 C   0  0  0  0  0
   -0.4202    1.4668    0.0877 C   0  0  0  0  0
    0.8803    3.4147   -0.0241 C   0  0  0  0  0
    2.1973    4.0752   -0.0945 C   0  0  0  0  0
    3.3746    3.3123   -0.1205 C   0  0  0  0  0
    4.6227    3.9386   -0.1873 C   0  0  0  0  0
    4.7034    5.3329   -0.2287 C   0  0  0  0  0
    3.5365    6.1011   -0.2034 C   0  0  0  0  0
    2.2885    5.4749   -0.1365 C   0  0  0  0  0
   -1.5045    3.6002    0.0592 C   0  0  0  0  0
   -3.8211    4.1691   -0.7882 C   0  0  0  0  0
   -4.9090    5.1797   -0.4831 C   0  0  0  0  0
   -6.1642    4.8586   -1.2797 C   0  0  0  0  0
   -6.9167    2.4343   -1.6291 C   0  0  0  0  0
   -7.6244    1.3980   -0.7422 C   0  0  0  0  0
   -7.9449    2.0676    0.5990 C   0  0  0  0  0
   -7.3731    3.4173    0.4473 C   0  0  0  0  0
   -1.5756    2.2007    0.1243 C   0  0  0  0  0
   -2.5986    1.2868    0.3011 C   0  0  0  0  0
   -4.0415    1.5469    0.5700 C   0  0  0  0  0
   -0.6360    0.1446    0.2073 N   0  0  0  0  0
    0.7991    2.0509    0.0165 N   0  0  0  0  0
   -0.2652    4.1672    0.0015 N   0  0  0  0  0
   -2.6550    4.4482    0.0311 N   0  0  0  0  0
   -6.7692    3.6188   -0.8119 N   0  0  0  0  0
   -7.4215    4.3037    1.3403 O   0  0  0  0  0
  1  2  1  0  0  0
  2 22  1  0  0  0
  4 23  1  0  0  0
  4  5  1  0  0  0
  6  7  1  0  0  0
  8  9  1  0  0  0
 10  5  1  0  0  0
 11 24  1  0  0  0
 11 25  1  0  0  0
 12 25  1  0  0  0
 12 13  1  0  0  0
 13 14  1  0  0  0
 14 26  1  0  0  0
 15 26  1  0  0  0
 15 16  1  0  0  0
 16 17  1  0  0  0
 17 18  1  0  0  0
 18 26  1  0  0  0
 19 20  1  0  0  0
 19  3  1  0  0  0
 21 20  1  0  0  0
 22  3  1  0  0  0
  3 23  2  0  0  0
  4 24  2  0  0  0
  5  6  2  0  0  0
  7  8  2  0  0  0
  9 10  2  0  0  0
 11 19  2  0  0  0
 18 27  2  0  0  0
 20  2  2  0  0  0
M  END
> <rmsd>
0.0944238529

$$$$
CHEMBL585734


 34 37  0  0  0  0  0  0  0  0999 V2000
   -0.1252   -5.8728   -3.2654 C   0  0  0  0  0
    0.9098   -6.6787   -3.9673 C   0  0  0  0  0
    0.6520   -7.6725   -4.9049 C   0  0  0  0  0
    2.7791   -7.4490   -4.7985 C   0  0  0  0  0
    4.9652   -6.7405   -4.3677 C   0  0  0  0  0
    3.1533   -5.7142   -3.1967 C   0  0  0  0  0
    1.9764   -5.2692   -1.0506 C   0  0  0  0  0
    0.9911   -4.2111   -0.5832 C   0  0  0  0  0
    1.0608   -2.0258    0.5467 C   0  0  0  0  0
    0.1414   -1.7300    2.7356 C   0  0  0  0  0
   -0.2897    0.1098    0.2537 C   0  0  0  0  0
   -1.5294   -0.5447    0.3015 C   0  0  0  0  0
   -2.7151    0.1930    0.2786 C   0  0  0  0  0
   -2.6685    1.5871    0.2001 C   0  0  0  0  0
   -1.4363    2.2532    0.1405 C   0  0  0  0  0
   -1.3881    3.7229    0.0521 C   0  0  0  0  0
   -2.6257    5.9332   -0.0324 C   0  0  0  0  0
   -2.2423    6.5137    1.3154 C   0  0  0  0  0
   -4.0200    6.3982   -0.3945 C   0  0  0  0  0
   -0.2504    1.5045    0.1634 C   0  0  0  0  0
    2.4953   -2.4169   -1.5278 C   0  0  0  0  0
    3.3971   -1.2728   -1.0883 C   0  0  0  0  0
    3.4146   -3.5178   -2.0591 C   0  0  0  0  0
    2.2803   -6.5496   -3.9031 C   0  0  0  0  0
    1.8135   -8.1505   -5.4171 N   0  0  0  0  0
    4.1069   -7.5586   -5.0433 N   0  0  0  0  0
    4.4896   -5.8324   -3.4606 N   0  0  0  0  0
    2.6947   -4.7751   -2.2165 N   0  0  0  0  0
    1.6514   -2.9143   -0.4214 N   0  0  0  0  0
    0.6663   -2.5080    1.6908 N   0  0  0  0  0
   -0.2912   -1.0897    3.5970 N   0  0  0  0  0
    0.9401   -0.6239    0.2496 N   0  0  0  0  0
   -2.6034    4.4793    0.0284 N   0  0  0  0  0
   -0.2758    4.3156   -0.0068 O   0  0  0  0  0
  1  2  1  0  0  0
  3 25  1  0  0  0
  5 26  1  0  0  0
  6 27  1  0  0  0
  6 28  1  0  0  0
  7 28  1  0  0  0
  7  8  1  0  0  0
  8 29  1  0  0  0
  9 32  1  0  0  0
 12 13  1  0  0  0
 14 15  1  0  0  0
 15 16  1  0  0  0
 16 33  1  0  0  0
 17 33  1  0  0  0
 17 18  1  0  0  0
 17 19  1  0  0  0
 20 11  1  0  0  0
 21 29  1  0  0  0
 21 22  1  0  0  0
 21 23  1  0  0  0
 23 28  1  0  0  0
 24  2  1  0  0  0
 24  4  1  0  0  0
 25  4  1  0  0  0
 29  9  1  0  0  0
 30 10  1  0  0  0
 32 11  1  0  0  0
  2  3  2  0  0  0
  4 26  2  0  0  0
  5 27  2  0  0  0
  6 24  2  0  0  0
  9 30  2  0  0  0
 11 12  2  0  0  0
 13 14  2  0  0  0
 15 20  2  0  0  0
 16 34  2  0  0  0
 10 31  3  0  0  0
M  END
> <rmsd>
0.136126742

$$$$
CHEMBL569861


 30 33  0  0  0  0  0  0  0  0999 V2000
   -6.6856    9.5134   -0.7607 C   0  0  0  0  0
   -7.6917    9.5695    0.3344 C   0  0  0  0  0
   -8.9034   10.2486    0.2739 C   0  0  0  0  0
   -8.7234    9.4661    2.2591 C   0  0  0  0  0
   -7.9848    8.5028    4.2573 C   0  0  0  0  0
   -6.6147    8.3403    2.3072 C   0  0  0  0  0
   -5.5273    6.9878    0.5022 C   0  0  0  0  0
   -5.2094    5.5433    0.8937 C   0  0  0  0  0
   -2.8086    4.8932    1.0012 C   0  0  0  0  0
   -0.4660    4.9422    0.5096 C   0  0  0  0  0
   -2.3987    2.5328    0.1469 C   0  0  0  0  0
   -1.6975    2.1267    1.2932 C   0  0  0  0  0
   -1.1090    0.8601    1.3467 C   0  0  0  0  0
   -1.2249   -0.0101    0.2591 C   0  0  0  0  0
   -1.9318    0.3853   -0.8804 C   0  0  0  0  0
   -2.0556   -0.5104   -1.9951 C   0  0  0  0  0
   -2.5209    1.6524   -0.9332 C   0  0  0  0  0
   -3.9005    6.3626    2.8320 C   0  0  0  0  0
   -2.6317    6.2301    3.6599 C   0  0  0  0  0
   -4.1769    7.8084    2.4423 C   0  0  0  0  0
   -7.5912    9.0649    1.6133 C   0  0  0  0  0
   -9.5427   10.1805    1.4681 N   0  0  0  0  0
   -8.9366    9.1979    3.5696 N   0  0  0  0  0
   -6.8421    8.0848    3.6308 N   0  0  0  0  0
   -5.4222    7.8541    1.6774 N   0  0  0  0  0
   -3.9471    5.5159    1.6278 N   0  0  0  0  0
   -1.6186    5.3946    1.1720 N   0  0  0  0  0
    0.4845    4.5704   -0.0362 N   0  0  0  0  0
   -3.0324    3.8150    0.0769 N   0  0  0  0  0
   -2.1553   -1.2326   -2.8939 N   0  0  0  0  0
  1  2  1  0  0  0
  3 22  1  0  0  0
  5 23  1  0  0  0
  6 24  1  0  0  0
  6 25  1  0  0  0
  7 25  1  0  0  0
  7  8  1  0  0  0
  8 26  1  0  0  0
  9 29  1  0  0  0
 12 13  1  0  0  0
 14 15  1  0  0  0
 15 16  1  0  0  0
 17 11  1  0  0  0
 18 26  1  0  0  0
 18 19  1  0  0  0
 18 20  1  0  0  0
 20 25  1  0  0  0
 21  2  1  0  0  0
 21  4  1  0  0  0
 22  4  1  0  0  0
 26  9  1  0  0  0
 27 10  1  0  0  0
 29 11  1  0  0  0
  2  3  2  0  0  0
  4 23  2  0  0  0
  5 24  2  0  0  0
  6 21  2  0  0  0
  9 27  2  0  0  0
 11 12  2  0  0  0
 13 14  2  0  0  0
 15 17  2  0  0  0
 10 28  3  0  0  0
 16 30  3  0  0  0
M  END
> <rmsd>
0.70628953

$$$$
