MODEL 1
REMARK VINA RESULT:      -8.2      0.000      0.000
REMARK  3 active torsions:
REMARK  status: ('A' for Active; 'I' for Inactive)
REMARK    1  A    between atoms: C1_1  and  N8_13 
REMARK       I    between atoms: C20_8  and  N3_6 
REMARK    2  A    between atoms: C20_8  and  C22_9 
REMARK    3  A    between atoms: C10_15  and  N8_13 
ROOT
HETATM    1  C22 MI1 A   1      26.794 -10.065   9.081  1.00 22.56     0.226 C 
HETATM    2  C23 MI1 A   1      28.096 -10.508   8.556  1.00 31.52     0.068 C 
HETATM    3  N24 MI1 A   1      29.145 -10.835   8.187  1.00 35.08    -0.197 NA
ENDROOT
BRANCH   1   4
HETATM    4  C20 MI1 A   1      25.740 -10.338   8.030  1.00 24.41     0.232 C 
HETATM    5  N3  MI1 A   1      25.239 -11.553   7.974  1.00 18.87    -0.349 N 
HETATM    6  C2  MI1 A   1      24.210 -11.892   6.974  1.00  8.71     0.151 C 
HETATM    7  C4  MI1 A   1      25.620 -12.600   8.957  1.00 14.86     0.126 C 
HETATM    8  C1  MI1 A   1      24.864 -12.892   6.041  1.00 20.59     0.107 C 
HETATM    9  C6  MI1 A   1      25.189 -14.137   6.945  1.00 25.70     0.007 C 
HETATM   10  C5  MI1 A   1      26.120 -13.790   8.128  1.00 21.94     0.026 C 
HETATM   11  C7  MI1 A   1      24.017 -14.977   7.511  1.00 22.23     0.012 C 
HETATM   12  O21 MI1 A   1      25.408  -9.454   7.247  1.00 30.30    -0.272 OA
BRANCH   8  13
HETATM   13  N8  MI1 A   1      23.940 -13.335   4.932  1.00 17.50    -0.363 N 
HETATM   14  C9  MI1 A   1      22.932 -14.383   5.117  1.00 17.48     0.152 C 
BRANCH  13  15
HETATM   15  C10 MI1 A   1      23.982 -12.795   3.663  1.00 19.09     0.141 A 
HETATM   16  N19 MI1 A   1      24.260 -11.455   3.512  1.00 11.43    -0.224 NA
HETATM   17  C18 MI1 A   1      24.249 -10.904   2.262  1.00 23.17     0.237 A 
HETATM   18  N17 MI1 A   1      24.002 -11.594   1.117  1.00 12.18    -0.223 NA
HETATM   19  C14 MI1 A   1      23.743 -12.902   1.288  1.00 15.66     0.142 A 
HETATM   20  N12 MI1 A   1      23.472 -13.805   0.327  1.00 10.67    -0.350 N 
HETATM   21  C15 MI1 A   1      23.710 -13.552   2.508  1.00 15.01     0.057 A 
HETATM   22  C11 MI1 A   1      23.244 -15.033   0.909  1.00 14.51     0.091 A 
HETATM   23  H12 MI1 A   1      23.442 -13.612  -0.663  1.00  0.00     0.166 HD
HETATM   24  C16 MI1 A   1      23.394 -14.954   2.279  1.00 14.01     0.036 A 
ENDBRANCH  13  15
ENDBRANCH   8  13
ENDBRANCH   1   4
TORSDOF 3
ENDMDL
MODEL 2
REMARK VINA RESULT:      -8.1      0.973      2.029
REMARK  3 active torsions:
REMARK  status: ('A' for Active; 'I' for Inactive)
REMARK    1  A    between atoms: C1_1  and  N8_13 
REMARK       I    between atoms: C20_8  and  N3_6 
REMARK    2  A    between atoms: C20_8  and  C22_9 
REMARK    3  A    between atoms: C10_15  and  N8_13 
ROOT
HETATM    1  C22 MI1 A   1      26.428  -9.938   8.299  1.00 22.56     0.226 C 
HETATM    2  C23 MI1 A   1      27.732 -10.439   7.838  1.00 31.52     0.068 C 
HETATM    3  N24 MI1 A   1      28.785 -10.798   7.510  1.00 35.08    -0.197 NA
ENDROOT
BRANCH   1   4
HETATM    4  C20 MI1 A   1      25.349 -10.557   7.437  1.00 24.41     0.232 C 
HETATM    5  N3  MI1 A   1      24.990 -11.793   7.709  1.00 18.87    -0.349 N 
HETATM    6  C2  MI1 A   1      23.948 -12.462   6.909  1.00  8.71     0.151 C 
HETATM    7  C4  MI1 A   1      25.551 -12.531   8.870  1.00 14.86     0.126 C 
HETATM    8  C1  MI1 A   1      24.654 -13.587   6.179  1.00 20.59     0.107 C 
HETATM    9  C6  MI1 A   1      25.178 -14.540   7.315  1.00 25.70     0.007 C 
HETATM   10  C5  MI1 A   1      26.134 -13.830   8.298  1.00 21.94     0.026 C 
HETATM   11  C7  MI1 A   1      24.149 -15.331   8.161  1.00 22.23     0.012 C 
HETATM   12  O21 MI1 A   1      24.868  -9.924   6.503  1.00 30.30    -0.272 OA
BRANCH   8  13
HETATM   13  N8  MI1 A   1      23.721 -14.372   5.289  1.00 17.50    -0.363 N 
HETATM   14  C9  MI1 A   1      22.757 -15.342   5.817  1.00 17.48     0.152 C 
BRANCH  13  15
HETATM   15  C10 MI1 A   1      23.713 -14.243   3.915  1.00 19.09     0.141 A 
HETATM   16  N19 MI1 A   1      23.365 -15.327   3.140  1.00 11.43    -0.224 NA
HETATM   17  C18 MI1 A   1      23.408 -15.220   1.779  1.00 23.17     0.237 A 
HETATM   18  N17 MI1 A   1      23.753 -14.091   1.105  1.00 12.18    -0.223 NA
HETATM   19  C14 MI1 A   1      24.078 -13.043   1.881  1.00 15.66     0.142 A 
HETATM   20  N12 MI1 A   1      24.451 -11.816   1.471  1.00 10.67    -0.350 N 
HETATM   21  C15 MI1 A   1      24.087 -13.053   3.264  1.00 15.01     0.057 A 
HETATM   22  C11 MI1 A   1      24.719 -11.031   2.571  1.00 14.51     0.091 A 
HETATM   23  H12 MI1 A   1      24.520 -11.519   0.509  1.00  0.00     0.166 HD
HETATM   24  C16 MI1 A   1      24.495 -11.738   3.735  1.00 14.01     0.036 A 
ENDBRANCH  13  15
ENDBRANCH   8  13
ENDBRANCH   1   4
TORSDOF 3
ENDMDL
MODEL 3
REMARK VINA RESULT:      -8.1      2.903      5.135
REMARK  3 active torsions:
REMARK  status: ('A' for Active; 'I' for Inactive)
REMARK    1  A    between atoms: C1_1  and  N8_13 
REMARK       I    between atoms: C20_8  and  N3_6 
REMARK    2  A    between atoms: C20_8  and  C22_9 
REMARK    3  A    between atoms: C10_15  and  N8_13 
ROOT
HETATM    1  C22 MI1 A   1      27.314  -9.303   3.507  1.00 22.56     0.226 C 
HETATM    2  C23 MI1 A   1      26.864  -8.321   2.509  1.00 31.52     0.068 C 
HETATM    3  N24 MI1 A   1      26.562  -7.538   1.708  1.00 35.08    -0.197 NA
ENDROOT
BRANCH   1   4
HETATM    4  C20 MI1 A   1      26.115  -9.735   4.324  1.00 24.41     0.232 C 
HETATM    5  N3  MI1 A   1      26.287  -9.890   5.619  1.00 18.87    -0.349 N 
HETATM    6  C2  MI1 A   1      25.165 -10.313   6.476  1.00  8.71     0.151 C 
HETATM    7  C4  MI1 A   1      27.580  -9.570   6.278  1.00 14.86     0.126 C 
HETATM    8  C1  MI1 A   1      25.539 -11.690   6.987  1.00 20.59     0.107 C 
HETATM    9  C6  MI1 A   1      26.837 -11.464   7.845  1.00 25.70     0.007 C 
HETATM   10  C5  MI1 A   1      27.992 -10.842   7.030  1.00 21.94     0.026 C 
HETATM   11  C7  MI1 A   1      26.729 -10.672   9.172  1.00 22.23     0.012 C 
HETATM   12  O21 MI1 A   1      25.044  -9.962   3.772  1.00 30.30    -0.272 OA
BRANCH   8  13
HETATM   13  N8  MI1 A   1      24.474 -12.282   7.879  1.00 17.50    -0.363 N 
HETATM   14  C9  MI1 A   1      23.633 -11.463   8.755  1.00 17.48     0.152 C 
BRANCH  13  15
HETATM   15  C10 MI1 A   1      24.221 -13.638   7.942  1.00 19.09     0.141 A 
HETATM   16  N19 MI1 A   1      24.400 -14.300   9.136  1.00 11.43    -0.224 NA
HETATM   17  C18 MI1 A   1      24.203 -15.651   9.190  1.00 23.17     0.237 A 
HETATM   18  N17 MI1 A   1      23.812 -16.416   8.137  1.00 12.18    -0.223 NA
HETATM   19  C14 MI1 A   1      23.634 -15.747   6.985  1.00 15.66     0.142 A 
HETATM   20  N12 MI1 A   1      23.248 -16.261   5.802  1.00 10.67    -0.350 N 
HETATM   21  C15 MI1 A   1      23.825 -14.388   6.819  1.00 15.01     0.057 A 
HETATM   22  C11 MI1 A   1      23.202 -15.254   4.862  1.00 14.51     0.091 A 
HETATM   23  H12 MI1 A   1      23.026 -17.230   5.632  1.00  0.00     0.166 HD
HETATM   24  C16 MI1 A   1      23.537 -14.044   5.435  1.00 14.01     0.036 A 
ENDBRANCH  13  15
ENDBRANCH   8  13
ENDBRANCH   1   4
TORSDOF 3
ENDMDL
MODEL 4
REMARK VINA RESULT:      -8.0      9.600     13.288
REMARK  3 active torsions:
REMARK  status: ('A' for Active; 'I' for Inactive)
REMARK    1  A    between atoms: C1_1  and  N8_13 
REMARK       I    between atoms: C20_8  and  N3_6 
REMARK    2  A    between atoms: C20_8  and  C22_9 
REMARK    3  A    between atoms: C10_15  and  N8_13 
ROOT
HETATM    1  C22 MI1 A   1      27.926  -2.540   3.316  1.00 22.56     0.226 C 
HETATM    2  C23 MI1 A   1      27.446  -3.836   2.813  1.00 31.52     0.068 C 
HETATM    3  N24 MI1 A   1      27.063  -4.836   2.366  1.00 35.08    -0.197 NA
ENDROOT
BRANCH   1   4
HETATM    4  C20 MI1 A   1      28.043  -2.628   4.822  1.00 24.41     0.232 C 
HETATM    5  N3  MI1 A   1      27.318  -1.794   5.537  1.00 18.87    -0.349 N 
HETATM    6  C2  MI1 A   1      27.384  -1.821   7.010  1.00  8.71     0.151 C 
HETATM    7  C4  MI1 A   1      26.352  -0.860   4.904  1.00 14.86     0.126 C 
HETATM    8  C1  MI1 A   1      28.006  -0.499   7.413  1.00 20.59     0.107 C 
HETATM    9  C6  MI1 A   1      26.987   0.594   6.924  1.00 25.70     0.007 C 
HETATM   10  C5  MI1 A   1      26.737   0.540   5.400  1.00 21.94     0.026 C 
HETATM   11  C7  MI1 A   1      25.604   0.691   7.614  1.00 22.23     0.012 C 
HETATM   12  O21 MI1 A   1      28.818  -3.429   5.334  1.00 30.30    -0.272 OA
BRANCH   8  13
HETATM   13  N8  MI1 A   1      28.163  -0.368   8.909  1.00 17.50    -0.363 N 
HETATM   14  C9  MI1 A   1      28.579   0.880   9.553  1.00 17.48     0.152 C 
BRANCH  13  15
HETATM   15  C10 MI1 A   1      27.937  -1.416   9.779  1.00 19.09     0.141 A 
HETATM   16  N19 MI1 A   1      28.743  -2.531   9.712  1.00 11.43    -0.224 NA
HETATM   17  C18 MI1 A   1      28.489  -3.592  10.534  1.00 23.17     0.237 A 
HETATM   18  N17 MI1 A   1      27.490  -3.632  11.455  1.00 12.18    -0.223 NA
HETATM   19  C14 MI1 A   1      26.723  -2.530  11.509  1.00 15.66     0.142 A 
HETATM   20  N12 MI1 A   1      25.678  -2.311  12.329  1.00 10.67    -0.350 N 
HETATM   21  C15 MI1 A   1      26.883  -1.413  10.711  1.00 15.01     0.057 A 
HETATM   22  C11 MI1 A   1      25.143  -1.070  12.062  1.00 14.51     0.091 A 
HETATM   23  H12 MI1 A   1      25.341  -2.955  13.029  1.00  0.00     0.166 HD
HETATM   24  C16 MI1 A   1      25.861  -0.439  11.066  1.00 14.01     0.036 A 
ENDBRANCH  13  15
ENDBRANCH   8  13
ENDBRANCH   1   4
TORSDOF 3
ENDMDL
MODEL 5
REMARK VINA RESULT:      -7.8      9.551     11.683
REMARK  3 active torsions:
REMARK  status: ('A' for Active; 'I' for Inactive)
REMARK    1  A    between atoms: C1_1  and  N8_13 
REMARK       I    between atoms: C20_8  and  N3_6 
REMARK    2  A    between atoms: C20_8  and  C22_9 
REMARK    3  A    between atoms: C10_15  and  N8_13 
ROOT
HETATM    1  C22 MI1 A   1      27.632  -6.075  10.999  1.00 22.56     0.226 C 
HETATM    2  C23 MI1 A   1      28.617  -6.975  11.620  1.00 31.52     0.068 C 
HETATM    3  N24 MI1 A   1      29.351  -7.713  12.132  1.00 35.08    -0.197 NA
ENDROOT
BRANCH   1   4
HETATM    4  C20 MI1 A   1      28.378  -4.930  10.349  1.00 24.41     0.232 C 
HETATM    5  N3  MI1 A   1      27.891  -3.719  10.512  1.00 18.87    -0.349 N 
HETATM    6  C2  MI1 A   1      28.563  -2.555   9.905  1.00  8.71     0.151 C 
HETATM    7  C4  MI1 A   1      26.707  -3.463  11.373  1.00 14.86     0.126 C 
HETATM    8  C1  MI1 A   1      27.598  -2.027   8.862  1.00 20.59     0.107 C 
HETATM    9  C6  MI1 A   1      26.331  -1.573   9.675  1.00 25.70     0.007 C 
HETATM   10  C5  MI1 A   1      25.697  -2.724  10.485  1.00 21.94     0.026 C 
HETATM   11  C7  MI1 A   1      26.447  -0.352  10.621  1.00 22.23     0.012 C 
HETATM   12  O21 MI1 A   1      29.375  -5.151   9.670  1.00 30.30    -0.272 OA
BRANCH   8  13
HETATM   13  N8  MI1 A   1      28.147  -0.829   8.124  1.00 17.50    -0.363 N 
HETATM   14  C9  MI1 A   1      29.368  -0.136   8.542  1.00 17.48     0.152 C 
BRANCH  13  15
HETATM   15  C10 MI1 A   1      27.534  -0.292   7.010  1.00 19.09     0.141 A 
HETATM   16  N19 MI1 A   1      27.031   0.988   7.070  1.00 11.43    -0.224 NA
HETATM   17  C18 MI1 A   1      26.377   1.504   5.987  1.00 23.17     0.237 A 
HETATM   18  N17 MI1 A   1      26.194   0.846   4.812  1.00 12.18    -0.223 NA
HETATM   19  C14 MI1 A   1      26.701  -0.398   4.772  1.00 15.66     0.142 A 
HETATM   20  N12 MI1 A   1      26.661  -1.256   3.736  1.00 10.67    -0.350 N 
HETATM   21  C15 MI1 A   1      27.362  -1.018   5.816  1.00 15.01     0.057 A 
HETATM   22  C11 MI1 A   1      27.274  -2.435   4.098  1.00 14.51     0.091 A 
HETATM   23  H12 MI1 A   1      26.249  -1.063   2.835  1.00  0.00     0.166 HD
HETATM   24  C16 MI1 A   1      27.754  -2.353   5.389  1.00 14.01     0.036 A 
ENDBRANCH  13  15
ENDBRANCH   8  13
ENDBRANCH   1   4
TORSDOF 3
ENDMDL
MODEL 6
REMARK VINA RESULT:      -7.5      9.544     12.468
REMARK  3 active torsions:
REMARK  status: ('A' for Active; 'I' for Inactive)
REMARK    1  A    between atoms: C1_1  and  N8_13 
REMARK       I    between atoms: C20_8  and  N3_6 
REMARK    2  A    between atoms: C20_8  and  C22_9 
REMARK    3  A    between atoms: C10_15  and  N8_13 
ROOT
HETATM    1  C22 MI1 A   1      27.167  -6.211  10.576  1.00 22.56     0.226 C 
HETATM    2  C23 MI1 A   1      27.718  -7.046  11.655  1.00 31.52     0.068 C 
HETATM    3  N24 MI1 A   1      28.105  -7.732  12.505  1.00 35.08    -0.197 NA
ENDROOT
BRANCH   1   4
HETATM    4  C20 MI1 A   1      28.123  -5.066  10.324  1.00 24.41     0.232 C 
HETATM    5  N3  MI1 A   1      27.669  -3.844  10.507  1.00 18.87    -0.349 N 
HETATM    6  C2  MI1 A   1      28.544  -2.680  10.278  1.00  8.71     0.151 C 
HETATM    7  C4  MI1 A   1      26.300  -3.590  11.026  1.00 14.86     0.126 C 
HETATM    8  C1  MI1 A   1      27.951  -1.953   9.087  1.00 20.59     0.107 C 
HETATM    9  C6  MI1 A   1      26.526  -1.491   9.564  1.00 25.70     0.007 C 
HETATM   10  C5  MI1 A   1      25.628  -2.670   9.999  1.00 21.94     0.026 C 
HETATM   11  C7  MI1 A   1      26.421  -0.403  10.662  1.00 22.23     0.012 C 
HETATM   12  O21 MI1 A   1      29.263  -5.290   9.930  1.00 30.30    -0.272 OA
BRANCH   8  13
HETATM   13  N8  MI1 A   1      28.747  -0.729   8.704  1.00 17.50    -0.363 N 
HETATM   14  C9  MI1 A   1      29.403   0.128   9.696  1.00 17.48     0.152 C 
BRANCH  13  15
HETATM   15  C10 MI1 A   1      28.907  -0.320   7.395  1.00 19.09     0.141 A 
HETATM   16  N19 MI1 A   1      30.083  -0.610   6.741  1.00 11.43    -0.224 NA
HETATM   17  C18 MI1 A   1      30.268  -0.162   5.463  1.00 23.17     0.237 A 
HETATM   18  N17 MI1 A   1      29.351   0.549   4.756  1.00 12.18    -0.223 NA
HETATM   19  C14 MI1 A   1      28.207   0.811   5.411  1.00 15.66     0.142 A 
HETATM   20  N12 MI1 A   1      27.143   1.489   4.942  1.00 10.67    -0.350 N 
HETATM   21  C15 MI1 A   1      27.929   0.422   6.708  1.00 15.01     0.057 A 
HETATM   22  C11 MI1 A   1      26.180   1.561   5.925  1.00 14.51     0.091 A 
HETATM   23  H12 MI1 A   1      27.063   1.881   4.016  1.00  0.00     0.166 HD
HETATM   24  C16 MI1 A   1      26.599   0.896   7.060  1.00 14.01     0.036 A 
ENDBRANCH  13  15
ENDBRANCH   8  13
ENDBRANCH   1   4
TORSDOF 3
ENDMDL
MODEL 7
REMARK VINA RESULT:      -7.5      1.578      2.960
REMARK  3 active torsions:
REMARK  status: ('A' for Active; 'I' for Inactive)
REMARK    1  A    between atoms: C1_1  and  N8_13 
REMARK       I    between atoms: C20_8  and  N3_6 
REMARK    2  A    between atoms: C20_8  and  C22_9 
REMARK    3  A    between atoms: C10_15  and  N8_13 
ROOT
HETATM    1  C22 MI1 A   1      25.657 -10.871   8.639  1.00 22.56     0.226 C 
HETATM    2  C23 MI1 A   1      27.123 -10.809   8.525  1.00 31.52     0.068 C 
HETATM    3  N24 MI1 A   1      28.281 -10.758   8.490  1.00 35.08    -0.197 NA
ENDROOT
BRANCH   1   4
HETATM    4  C20 MI1 A   1      25.066 -10.753   7.251  1.00 24.41     0.232 C 
HETATM    5  N3  MI1 A   1      24.479 -11.818   6.749  1.00 18.87    -0.349 N 
HETATM    6  C2  MI1 A   1      23.884 -11.777   5.401  1.00  8.71     0.151 C 
HETATM    7  C4  MI1 A   1      24.317 -13.066   7.539  1.00 14.86     0.126 C 
HETATM    8  C1  MI1 A   1      24.718 -12.722   4.559  1.00 20.59     0.107 C 
HETATM    9  C6  MI1 A   1      24.512 -14.137   5.213  1.00 25.70     0.007 C 
HETATM   10  C5  MI1 A   1      24.947 -14.181   6.694  1.00 21.94     0.026 C 
HETATM   11  C7  MI1 A   1      23.118 -14.807   5.123  1.00 22.23     0.012 C 
HETATM   12  O21 MI1 A   1      25.175  -9.706   6.623  1.00 30.30    -0.272 OA
BRANCH   8  13
HETATM   13  N8  MI1 A   1      24.248 -12.786   3.126  1.00 17.50    -0.363 N 
HETATM   14  C9  MI1 A   1      24.032 -14.053   2.422  1.00 17.48     0.152 C 
BRANCH  13  15
HETATM   15  C10 MI1 A   1      23.995 -11.658   2.371  1.00 19.09     0.141 A 
HETATM   16  N19 MI1 A   1      22.969 -11.680   1.453  1.00 11.43    -0.224 NA
HETATM   17  C18 MI1 A   1      22.749 -10.585   0.666  1.00 23.17     0.237 A 
HETATM   18  N17 MI1 A   1      23.467  -9.433   0.731  1.00 12.18    -0.223 NA
HETATM   19  C14 MI1 A   1      24.457  -9.431   1.640  1.00 15.66     0.142 A 
HETATM   20  N12 MI1 A   1      25.308  -8.423   1.908  1.00 10.67    -0.350 N 
HETATM   21  C15 MI1 A   1      24.774 -10.490   2.470  1.00 15.01     0.057 A 
HETATM   22  C11 MI1 A   1      26.188  -8.820   2.891  1.00 14.51     0.091 A 
HETATM   23  H12 MI1 A   1      25.301  -7.519   1.460  1.00  0.00     0.166 HD
HETATM   24  C16 MI1 A   1      25.901 -10.105   3.306  1.00 14.01     0.036 A 
ENDBRANCH  13  15
ENDBRANCH   8  13
ENDBRANCH   1   4
TORSDOF 3
ENDMDL
MODEL 8
REMARK VINA RESULT:      -7.3      8.868     12.033
REMARK  3 active torsions:
REMARK  status: ('A' for Active; 'I' for Inactive)
REMARK    1  A    between atoms: C1_1  and  N8_13 
REMARK       I    between atoms: C20_8  and  N3_6 
REMARK    2  A    between atoms: C20_8  and  C22_9 
REMARK    3  A    between atoms: C10_15  and  N8_13 
ROOT
HETATM    1  C22 MI1 A   1      27.075  -6.213  10.721  1.00 22.56     0.226 C 
HETATM    2  C23 MI1 A   1      27.793  -7.490  10.867  1.00 31.52     0.068 C 
HETATM    3  N24 MI1 A   1      28.311  -8.518  10.997  1.00 35.08    -0.197 NA
ENDROOT
BRANCH   1   4
HETATM    4  C20 MI1 A   1      28.087  -5.130  10.419  1.00 24.41     0.232 C 
HETATM    5  N3  MI1 A   1      27.689  -3.880  10.526  1.00 18.87    -0.349 N 
HETATM    6  C2  MI1 A   1      28.620  -2.772  10.245  1.00  8.71     0.151 C 
HETATM    7  C4  MI1 A   1      26.327  -3.534  11.009  1.00 14.86     0.126 C 
HETATM    8  C1  MI1 A   1      28.076  -2.088   9.007  1.00 20.59     0.107 C 
HETATM    9  C6  MI1 A   1      26.668  -1.534   9.436  1.00 25.70     0.007 C 
HETATM   10  C5  MI1 A   1      25.711  -2.644   9.922  1.00 21.94     0.026 C 
HETATM   11  C7  MI1 A   1      26.601  -0.381  10.469  1.00 22.23     0.012 C 
HETATM   12  O21 MI1 A   1      29.220  -5.429  10.056  1.00 30.30    -0.272 OA
BRANCH   8  13
HETATM   13  N8  MI1 A   1      28.933  -0.925   8.567  1.00 17.50    -0.363 N 
HETATM   14  C9  MI1 A   1      29.985  -0.356   9.414  1.00 17.48     0.152 C 
BRANCH  13  15
HETATM   15  C10 MI1 A   1      28.784  -0.307   7.342  1.00 19.09     0.141 A 
HETATM   16  N19 MI1 A   1      28.122   0.899   7.274  1.00 11.43    -0.224 NA
HETATM   17  C18 MI1 A   1      27.925   1.488   6.058  1.00 23.17     0.237 A 
HETATM   18  N17 MI1 A   1      28.359   0.978   4.875  1.00 12.18    -0.223 NA
HETATM   19  C14 MI1 A   1      29.010  -0.194   4.966  1.00 15.66     0.142 A 
HETATM   20  N12 MI1 A   1      29.542  -0.906   3.955  1.00 10.67    -0.350 N 
HETATM   21  C15 MI1 A   1      29.245  -0.881   6.143  1.00 15.01     0.057 A 
HETATM   22  C11 MI1 A   1      30.106  -2.058   4.457  1.00 14.51     0.091 A 
HETATM   23  H12 MI1 A   1      29.530  -0.636   2.982  1.00  0.00     0.166 HD
HETATM   24  C16 MI1 A   1      29.972  -2.102   5.830  1.00 14.01     0.036 A 
ENDBRANCH  13  15
ENDBRANCH   8  13
ENDBRANCH   1   4
TORSDOF 3
ENDMDL
MODEL 9
REMARK VINA RESULT:      -7.2      9.973     12.074
REMARK  3 active torsions:
REMARK  status: ('A' for Active; 'I' for Inactive)
REMARK    1  A    between atoms: C1_1  and  N8_13 
REMARK       I    between atoms: C20_8  and  N3_6 
REMARK    2  A    between atoms: C20_8  and  C22_9 
REMARK    3  A    between atoms: C10_15  and  N8_13 
ROOT
HETATM    1  C22 MI1 A   1      27.612  -6.046  10.930  1.00 22.56     0.226 C 
HETATM    2  C23 MI1 A   1      28.626  -6.676  11.790  1.00 31.52     0.068 C 
HETATM    3  N24 MI1 A   1      29.385  -7.203  12.490  1.00 35.08    -0.197 NA
ENDROOT
BRANCH   1   4
HETATM    4  C20 MI1 A   1      28.260  -4.892  10.196  1.00 24.41     0.232 C 
HETATM    5  N3  MI1 A   1      27.786  -3.686  10.424  1.00 18.87    -0.349 N 
HETATM    6  C2  MI1 A   1      28.366  -2.515   9.742  1.00  8.71     0.151 C 
HETATM    7  C4  MI1 A   1      26.717  -3.444  11.427  1.00 14.86     0.126 C 
HETATM    8  C1  MI1 A   1      27.274  -1.992   8.830  1.00 20.59     0.107 C 
HETATM    9  C6  MI1 A   1      26.115  -1.553   9.797  1.00 25.70     0.007 C 
HETATM   10  C5  MI1 A   1      25.597  -2.713  10.675  1.00 21.94     0.026 C 
HETATM   11  C7  MI1 A   1      26.337  -0.334  10.726  1.00 22.23     0.012 C 
HETATM   12  O21 MI1 A   1      29.167  -5.102   9.398  1.00 30.30    -0.272 OA
BRANCH   8  13
HETATM   13  N8  MI1 A   1      27.715  -0.787   8.034  1.00 17.50    -0.363 N 
HETATM   14  C9  MI1 A   1      26.804   0.308   7.691  1.00 17.48     0.152 C 
BRANCH  13  15
HETATM   15  C10 MI1 A   1      29.004  -0.632   7.565  1.00 19.09     0.141 A 
HETATM   16  N19 MI1 A   1      29.795   0.365   8.092  1.00 11.43    -0.224 NA
HETATM   17  C18 MI1 A   1      31.052   0.558   7.593  1.00 23.17     0.237 A 
HETATM   18  N17 MI1 A   1      31.613  -0.190   6.606  1.00 12.18    -0.223 NA
HETATM   19  C14 MI1 A   1      30.827  -1.163   6.115  1.00 15.66     0.142 A 
HETATM   20  N12 MI1 A   1      31.137  -2.041   5.143  1.00 10.67    -0.350 N 
HETATM   21  C15 MI1 A   1      29.536  -1.428   6.534  1.00 15.01     0.057 A 
HETATM   22  C11 MI1 A   1      30.057  -2.864   4.912  1.00 14.51     0.091 A 
HETATM   23  H12 MI1 A   1      32.023  -2.089   4.661  1.00  0.00     0.166 HD
HETATM   24  C16 MI1 A   1      29.018  -2.548   5.763  1.00 14.01     0.036 A 
ENDBRANCH  13  15
ENDBRANCH   8  13
ENDBRANCH   1   4
TORSDOF 3
ENDMDL
