REMARK  3 active torsions:
REMARK  status: ('A' for Active; 'I' for Inactive)
REMARK    1  A    between atoms: C1_1  and  N8_13 
REMARK       I    between atoms: C20_8  and  N3_6 
REMARK    2  A    between atoms: C20_8  and  C22_9 
REMARK    3  A    between atoms: C10_15  and  N8_13 
ROOT
HETATM    1  C22 MI1 A   1      30.228  16.523  34.170  1.00 22.56     0.226 C 
HETATM    2  C23 MI1 A   1      30.869  17.825  33.926  1.00 31.52     0.068 C 
HETATM    3  N24 MI1 A   1      31.420  18.824  33.719  1.00 35.08    -0.197 NA
ENDROOT
BRANCH   1   4
HETATM    4  C20 MI1 A   1      28.874  16.770  34.799  1.00 24.41     0.232 C 
HETATM    5  N3  MI1 A   1      28.081  15.732  34.959  1.00 18.87    -0.349 N 
HETATM    6  C2  MI1 A   1      26.746  15.898  35.562  1.00  8.71     0.151 C 
HETATM    7  C4  MI1 A   1      28.522  14.354  34.622  1.00 14.86     0.126 C 
HETATM    8  C1  MI1 A   1      25.758  15.577  34.458  1.00 20.59     0.107 C 
HETATM    9  C6  MI1 A   1      26.023  14.068  34.104  1.00 25.70     0.007 C 
HETATM   10  C5  MI1 A   1      27.474  13.807  33.644  1.00 21.94     0.026 C 
HETATM   11  C7  MI1 A   1      25.668  12.981  35.149  1.00 22.23     0.012 C 
HETATM   12  O21 MI1 A   1      28.536  17.908  35.106  1.00 30.30    -0.272 OA
BRANCH   8  13
HETATM   13  N8  MI1 A   1      24.324  15.717  34.909  1.00 17.50    -0.363 N 
HETATM   14  C9  MI1 A   1      23.942  15.756  36.323  1.00 17.48     0.152 C 
BRANCH  13  15
HETATM   15  C10 MI1 A   1      23.268  15.809  34.025  1.00 19.09     0.141 A 
HETATM   16  N19 MI1 A   1      21.985  15.897  34.518  1.00 11.43    -0.224 NA
HETATM   17  C18 MI1 A   1      20.933  15.934  33.647  1.00 23.17     0.237 A 
HETATM   18  N17 MI1 A   1      21.052  15.913  32.293  1.00 12.18    -0.223 NA
HETATM   19  C14 MI1 A   1      22.313  15.837  31.835  1.00 15.66     0.142 A 
HETATM   20  N12 MI1 A   1      22.706  15.805  30.548  1.00 10.67    -0.350 N 
HETATM   21  C15 MI1 A   1      23.443  15.775  32.629  1.00 15.01     0.057 A 
HETATM   22  C11 MI1 A   1      24.079  15.705  30.494  1.00 14.51     0.091 A 
HETATM   23  H12 MI1 A   1      22.091  15.849  29.749  1.00  0.00     0.166 HD
HETATM   24  C16 MI1 A   1      24.613  15.698  31.767  1.00 14.01     0.036 A 
ENDBRANCH  13  15
ENDBRANCH   8  13
ENDBRANCH   1   4
TORSDOF 3
