REMARK  3 active torsions:
REMARK  status: ('A' for Active; 'I' for Inactive)
REMARK    1  A    between atoms: C1_1  and  N8_13 
REMARK       I    between atoms: C20_8  and  N3_6 
REMARK    2  A    between atoms: C20_8  and  C22_9 
REMARK    3  A    between atoms: C10_15  and  N8_13 
ROOT
HETATM    1  C22 MI1 A   1       7.586  13.042 -17.659  1.00 22.56     0.226 C 
HETATM    2  C23 MI1 A   1       6.402  13.886 -17.886  1.00 31.52     0.068 C 
HETATM    3  N24 MI1 A   1       5.440  14.506 -18.077  1.00 35.08    -0.197 NA
ENDROOT
BRANCH   1   4
HETATM    4  C20 MI1 A   1       8.779  13.946 -17.437  1.00 24.41     0.232 C 
HETATM    5  N3  MI1 A   1       9.909  13.380 -17.070  1.00 18.87    -0.349 N 
HETATM    6  C2  MI1 A   1      11.111  14.198 -16.832  1.00  8.71     0.151 C 
HETATM    7  C4  MI1 A   1      10.043  11.904 -16.962  1.00 14.86     0.126 C 
HETATM    8  C1  MI1 A   1      11.400  14.076 -15.349  1.00 20.59     0.107 C 
HETATM    9  C6  MI1 A   1      11.713  12.552 -15.122  1.00 25.70     0.007 C 
HETATM   10  C5  MI1 A   1      10.544  11.632 -15.538  1.00 21.94     0.026 C 
HETATM   11  C7  MI1 A   1      13.007  11.955 -15.729  1.00 22.23     0.012 C 
HETATM   12  O21 MI1 A   1       8.664  15.160 -17.564  1.00 30.30    -0.272 OA
BRANCH   8  13
HETATM   13  N8  MI1 A   1      12.608  14.879 -14.929  1.00 17.50    -0.363 N 
HETATM   14  C9  MI1 A   1      13.600  15.373 -15.888  1.00 17.48     0.152 C 
BRANCH  13  15
HETATM   15  C10 MI1 A   1      12.872  15.198 -13.612  1.00 19.09     0.141 A 
HETATM   16  C15 MI1 A   1      12.037  14.796 -12.553  1.00 15.01     0.057 A 
HETATM   17  C14 MI1 A   1      12.415  15.138 -11.268  1.00 15.66     0.142 A 
HETATM   18  C16 MI1 A   1      10.779  14.068 -12.489  1.00 14.01     0.036 A 
HETATM   19  N12 MI1 A   1      11.478  14.674 -10.421  1.00 10.67    -0.350 N 
HETATM   20  N17 MI1 A   1      13.530  15.816 -10.946  1.00 12.18    -0.223 NA
HETATM   21  C11 MI1 A   1      10.502  14.017 -11.137  1.00 14.51     0.091 A 
HETATM   22  H12 MI1 A   1      11.489  14.789  -9.418  1.00  0.00     0.166 HD
HETATM   23  C18 MI1 A   1      14.309  16.174 -12.002  1.00 23.17     0.237 A 
HETATM   24  N19 MI1 A   1      14.016  15.902 -13.308  1.00 11.43    -0.224 NA
ENDBRANCH  13  15
ENDBRANCH   8  13
ENDBRANCH   1   4
TORSDOF 3
